xflr5 v6.59

 Calculated polar for: NACA 0009

 1 1 Reynolds number fixed          Mach number fixed         

 xtrf =   1.000 (top)        1.000 (bottom)
 Mach =   0.000     Re =     0.300 e 6     Ncrit =   9.000

  alpha     CL        CD       CDp       Cm    Top Xtr Bot Xtr   Cpmin    Chinge    XCp    
 ------- -------- --------- --------- -------- ------- ------- -------- --------- ---------
 -25.000  -1.0111   0.32918   0.32615   0.1291  1.0000  0.0108  -1.6435   0.0000   0.0000   0.0000   0.3517
 -24.800  -1.0050   0.32640   0.32337   0.1272  1.0000  0.0111  -1.6521   0.0000   0.0000   0.0000   0.3510
 -24.600  -0.9986   0.32363   0.32059   0.1253  1.0000  0.0113  -1.6669   0.0000   0.0000   0.0000   0.3502
 -24.400  -0.9921   0.32091   0.31786   0.1232  1.0000  0.0115  -1.6878   0.0000   0.0000   0.0000   0.3493
 -24.200  -0.9857   0.31828   0.31523   0.1211  1.0000  0.0117  -1.7115   0.0000   0.0000   0.0000   0.3483
 -24.000  -0.9793   0.31573   0.31267   0.1189  1.0000  0.0118  -1.7350   0.0000   0.0000   0.0000   0.3473
 -23.800  -0.9731   0.31321   0.31015   0.1168  1.0000  0.0118  -1.7578   0.0000   0.0000   0.0000   0.3462
 -23.600  -0.9669   0.31071   0.30764   0.1146  1.0000  0.0119  -1.7800   0.0000   0.0000   0.0000   0.3451
 -23.400  -0.9608   0.30822   0.30515   0.1125  1.0000  0.0119  -1.8020   0.0000   0.0000   0.0000   0.3440
 -23.200  -0.9548   0.30572   0.30265   0.1104  1.0000  0.0120  -1.8242   0.0000   0.0000   0.0000   0.3429
 -23.000  -0.9488   0.30323   0.30016   0.1082  1.0000  0.0120  -1.8470   0.0000   0.0000   0.0000   0.3417
 -22.800  -0.9429   0.30072   0.29765   0.1061  1.0000  0.0120  -1.8705   0.0000   0.0000   0.0000   0.3406
 -22.600  -0.9369   0.29822   0.29515   0.1040  1.0000  0.0121  -1.8951   0.0000   0.0000   0.0000   0.3394
 -22.400  -0.9310   0.29569   0.29262   0.1019  1.0000  0.0121  -1.9199   0.0000   0.0000   0.0000   0.3382
 -22.200  -0.9249   0.29305   0.28998   0.1000  1.0000  0.0121  -1.9377   0.0000   0.0000   0.0000   0.3371
 -22.000  -0.9188   0.29038   0.28730   0.0981  1.0000  0.0121  -1.9558   0.0000   0.0000   0.0000   0.3361
 -21.800  -0.9127   0.28767   0.28459   0.0962  1.0000  0.0121  -1.9748   0.0000   0.0000   0.0000   0.3350
 -21.600  -0.9065   0.28493   0.28185   0.0943  1.0000  0.0121  -1.9948   0.0000   0.0000   0.0000   0.3340
 -21.400  -0.9004   0.28215   0.27905   0.0924  1.0000  0.0121  -2.0156   0.0000   0.0000   0.0000   0.3329
 -21.200  -0.8949   0.27560   0.27251   0.0928  1.0000  0.0126  -1.9873   0.0000   0.0000   0.0000   0.3342
 -21.000  -0.8884   0.27289   0.26979   0.0919  1.0000  0.0128  -1.9268   0.0000   0.0000   0.0000   0.3343
 -20.800  -0.8820   0.27046   0.26736   0.0906  1.0000  0.0130  -1.8800   0.0000   0.0000   0.0000   0.3340
 -20.600  -0.8756   0.26809   0.26498   0.0892  1.0000  0.0133  -1.8440   0.0000   0.0000   0.0000   0.3336
 -20.400  -0.8691   0.26571   0.26260   0.0878  1.0000  0.0136  -1.8169   0.0000   0.0000   0.0000   0.3330
 -20.200  -0.8627   0.26326   0.26014   0.0862  1.0000  0.0140  -1.7980   0.0000   0.0000   0.0000   0.3322
 -20.000  -0.8562   0.26074   0.25763   0.0846  1.0000  0.0144  -1.7867   0.0000   0.0000   0.0000   0.3315
 -19.800  -0.8499   0.25814   0.25502   0.0830  1.0000  0.0150  -1.7833   0.0000   0.0000   0.0000   0.3306
 -19.600  -0.8436   0.25537   0.25225   0.0814  1.0000  0.0157  -1.7889   0.0000   0.0000   0.0000   0.3297
 -19.400  -0.8374   0.25239   0.24927   0.0796  1.0000  0.0167  -1.8100   0.0000   0.0000   0.0000   0.3286
 -19.200  -0.8309   0.24923   0.24611   0.0767  1.0000  0.0182  -1.9303   0.0000   0.0000   0.0000   0.3260
 -19.000  -0.8269   0.24682   0.24372   0.0732  1.0000  0.0186  -2.0597   0.0000   0.0000   0.0000   0.3224
 -18.800  -0.8228   0.24420   0.24111   0.0706  1.0000  0.0187  -2.1317   0.0000   0.0000   0.0000   0.3199
 -18.600  -0.8176   0.24129   0.23819   0.0686  1.0000  0.0188  -2.1602   0.0000   0.0000   0.0000   0.3183
 -18.400  -0.8123   0.23826   0.23516   0.0668  1.0000  0.0188  -2.1786   0.0000   0.0000   0.0000   0.3169
 -18.200  -0.8071   0.23516   0.23206   0.0650  1.0000  0.0188  -2.1903   0.0000   0.0000   0.0000   0.3154
 -18.000  -0.8010   0.22922   0.22612   0.0659  1.0000  0.0195  -2.1139   0.0000   0.0000   0.0000   0.3173
 -17.800  -0.7935   0.22695   0.22384   0.0658  1.0000  0.0201  -1.9887   0.0000   0.0000   0.0000   0.3183
 -17.600  -0.7871   0.22461   0.22148   0.0649  1.0000  0.0207  -1.9127   0.0000   0.0000   0.0000   0.3182
 -17.400  -0.7811   0.22204   0.21890   0.0637  1.0000  0.0212  -1.8640   0.0000   0.0000   0.0000   0.3176
 -17.200  -0.7754   0.21927   0.21614   0.0623  1.0000  0.0217  -1.8320   0.0000   0.0000   0.0000   0.3167
 -17.000  -0.3405   0.08698   0.08445  -0.0011  1.0000  0.0275  -0.8814   0.0000   0.0000   0.0000   0.2468
 -16.800  -0.3284   0.08372   0.08117  -0.0013  1.0000  0.0280  -0.8053   0.0000   0.0000   0.0000   0.2467
 -16.600  -0.3197   0.08111   0.07856  -0.0020  1.0000  0.0286  -0.7642   0.0000   0.0000   0.0000   0.2448
 -16.400  -0.3121   0.07862   0.07608  -0.0029  1.0000  0.0293  -0.7392   0.0000   0.0000   0.0000   0.2422
 -16.200  -0.3051   0.07616   0.07362  -0.0039  1.0000  0.0301  -0.7253   0.0000   0.0000   0.0000   0.2391
 -16.000  -0.2985   0.07370   0.07116  -0.0050  1.0000  0.0310  -0.7207   0.0000   0.0000   0.0000   0.2356
 -15.800  -0.2923   0.07120   0.06867  -0.0062  1.0000  0.0322  -0.7251   0.0000   0.0000   0.0000   0.2316
 -15.600  -0.2868   0.06870   0.06617  -0.0074  1.0000  0.0337  -0.7439   0.0000   0.0000   0.0000   0.2269
 -15.400  -0.2865   0.06661   0.06409  -0.0096  1.0000  0.0356  -0.8304   0.0000   0.0000   0.0000   0.2191
 -15.200  -0.2873   0.06463   0.06212  -0.0119  1.0000  0.0361  -0.9188   0.0000   0.0000   0.0000   0.2112
 -15.000  -0.2840   0.06223   0.05973  -0.0135  1.0000  0.0363  -0.9702   0.0000   0.0000   0.0000   0.2051
 -14.800  -0.2799   0.05965   0.05715  -0.0150  1.0000  0.0364  -1.0184   0.0000   0.0000   0.0000   0.1992
 -14.600  -0.2625   0.05530   0.05282  -0.0144  1.0000  0.0382  -0.9184   0.0000   0.0000   0.0000   0.1991
 -14.400  -0.2526   0.05346   0.05099  -0.0147  1.0000  0.0400  -0.8633   0.0000   0.0000   0.0000   0.1965
 -14.200  -0.7242   0.16799   0.16493   0.0355  1.0000  0.0275  -2.1880   0.0000   0.0000   0.0000   0.2881
 -14.000  -0.7193   0.16519   0.16212   0.0354  1.0000  0.0279  -2.1346   0.0000   0.0000   0.0000   0.2886
 -13.800  -0.7138   0.16263   0.15956   0.0351  1.0000  0.0282  -2.0843   0.0000   0.0000   0.0000   0.2888
 -13.600  -0.7085   0.16001   0.15694   0.0347  1.0000  0.0286  -2.0444   0.0000   0.0000   0.0000   0.2888
 -13.400  -0.2337   0.04203   0.03961  -0.0217  1.0000  0.0489  -0.9664   0.0000   0.0000   0.0000   0.1623
 -13.200  -0.2215   0.04056   0.03814  -0.0215  1.0000  0.0505  -0.8693   0.0000   0.0000   0.0000   0.1591
 -13.000  -0.2147   0.03876   0.03632  -0.0222  1.0000  0.0516  -0.8348   0.0000   0.0000   0.0000   0.1532
 -12.800  -0.2091   0.03691   0.03448  -0.0231  1.0000  0.0529  -0.8212   0.0000   0.0000   0.0000   0.1465
 -12.600  -0.2049   0.03500   0.03258  -0.0242  1.0000  0.0544  -0.8221   0.0000   0.0000   0.0000   0.1391
 -12.400  -0.2032   0.03301   0.03060  -0.0257  1.0000  0.0563  -0.8495   0.0000   0.0000   0.0000   0.1308
 -12.200  -0.2142   0.03111   0.02872  -0.0293  1.0000  0.0589  -1.0040   0.0000   0.0000   0.0000   0.1193
 -12.000  -0.2133   0.02902   0.02664  -0.0308  1.0000  0.0591  -1.0429   0.0000   0.0000   0.0000   0.1114
 -11.200  -0.8536   0.06769   0.06453  -0.0156  1.0000  0.0195  -5.2097   0.0000   0.0000   0.0000   0.2217
 -11.000  -0.8686   0.06229   0.05896  -0.0205  1.0000  0.0193  -5.3331   0.0000   0.0000   0.0000   0.2168
 -10.800  -0.8825   0.05829   0.05481  -0.0229  1.0000  0.0192  -5.4134   0.0000   0.0000   0.0000   0.2148
 -10.600  -0.8970   0.05496   0.05131  -0.0233  1.0000  0.0192  -5.4852   0.0000   0.0000   0.0000   0.2150
 -10.400  -0.9117   0.05189   0.04807  -0.0221  1.0000  0.0192  -5.5611   0.0000   0.0000   0.0000   0.2170
 -10.200  -0.9246   0.04818   0.04410  -0.0208  1.0000  0.0192  -5.6633   0.0000   0.0000   0.0000   0.2188
 -10.000  -0.9360   0.04394   0.03954  -0.0194  1.0000  0.0193  -5.7859   0.0000   0.0000   0.0000   0.2208
  -9.800  -0.9417   0.03996   0.03524  -0.0179  1.0000  0.0197  -5.8627   0.0000   0.0000   0.0000   0.2227
  -9.600  -0.9378   0.03737   0.03245  -0.0168  1.0000  0.0202  -5.8085   0.0000   0.0000   0.0000   0.2240
  -9.400  -0.9285   0.03567   0.03058  -0.0159  1.0000  0.0208  -5.6812   0.0000   0.0000   0.0000   0.2250
  -9.200  -0.9177   0.03408   0.02881  -0.0150  1.0000  0.0214  -5.5554   0.0000   0.0000   0.0000   0.2259
  -9.000  -0.9057   0.03248   0.02703  -0.0141  1.0000  0.0220  -5.4301   0.0000   0.0000   0.0000   0.2269
  -8.800  -0.8934   0.03073   0.02507  -0.0131  1.0000  0.0225  -5.3171   0.0000   0.0000   0.0000   0.2280
  -8.600  -0.8801   0.02898   0.02309  -0.0121  1.0000  0.0230  -5.2049   0.0000   0.0000   0.0000   0.2290
  -8.400  -0.8658   0.02731   0.02118  -0.0112  1.0000  0.0236  -5.0862   0.0000   0.0000   0.0000   0.2301
  -8.200  -0.8500   0.02597   0.01966  -0.0104  1.0000  0.0243  -4.9417   0.0000   0.0000   0.0000   0.2310
  -8.000  -0.8328   0.02511   0.01863  -0.0097  1.0000  0.0255  -4.7678   0.0000   0.0000   0.0000   0.2318
  -7.800  -0.8147   0.02447   0.01783  -0.0090  1.0000  0.0264  -4.5884   0.0000   0.0000   0.0000   0.2325
  -7.600  -0.7970   0.02355   0.01673  -0.0082  1.0000  0.0270  -4.4301   0.0000   0.0000   0.0000   0.2334
  -7.400  -0.7831   0.02064   0.01359  -0.0071  1.0000  0.0282  -4.3731   0.0000   0.0000   0.0000   0.2348
  -7.200  -0.7661   0.01943   0.01230  -0.0063  1.0000  0.0297  -4.2252   0.0000   0.0000   0.0000   0.2358
  -7.000  -0.7479   0.01869   0.01151  -0.0057  1.0000  0.0314  -4.0479   0.0000   0.0000   0.0000   0.2366
  -6.800  -0.7294   0.01799   0.01075  -0.0050  1.0000  0.0333  -3.8753   0.0000   0.0000   0.0000   0.2375
  -6.600  -0.7107   0.01736   0.01003  -0.0043  1.0000  0.0351  -3.7018   0.0000   0.0000   0.0000   0.2385
  -6.400  -0.6914   0.01692   0.00951  -0.0037  1.0000  0.0364  -3.5200   0.0000   0.0000   0.0000   0.2394
  -6.200  -0.6765   0.01555   0.00814  -0.0025  1.0000  0.0395  -3.4023   0.0000   0.0000   0.0000   0.2412
  -6.000  -0.6581   0.01506   0.00766  -0.0018  1.0000  0.0427  -3.2654   0.0000   0.0000   0.0000   0.2422
  -5.800  -0.6386   0.01478   0.00732  -0.0013  1.0000  0.0466  -3.1226   0.0000   0.0000   0.0000   0.2432
  -5.600  -0.6221   0.01397   0.00654  -0.0003  1.0000  0.0519  -3.0067   0.0000   0.0000   0.0000   0.2448
  -5.400  -0.6035   0.01356   0.00611   0.0004  1.0000  0.0573  -2.8749   0.0000   0.0000   0.0000   0.2461
  -5.200  -0.5861   0.01294   0.00547   0.0013  1.0000  0.0645  -2.7599   0.0000   0.0000   0.0000   0.2478
  -5.000  -0.5675   0.01256   0.00508   0.0020  1.0000  0.0733  -2.6257   0.0000   0.0000   0.0000   0.2493
  -4.800  -0.5496   0.01205   0.00465   0.0028  1.0000  0.0879  -2.4942   0.0000   0.0000   0.0000   0.2509
  -4.600  -0.5319   0.01150   0.00426   0.0035  1.0000  0.1119  -2.3620   0.0000   0.0000   0.0000   0.2526
  -4.400  -0.5141   0.01098   0.00394   0.0042  1.0000  0.1479  -2.2285   0.0000   0.0000   0.0000   0.2543
  -4.200  -0.4962   0.01050   0.00368   0.0048  1.0000  0.1938  -2.0942   0.0000   0.0000   0.0000   0.2560
  -4.000  -0.4782   0.01006   0.00346   0.0054  1.0000  0.2435  -1.9599   0.0000   0.0000   0.0000   0.2578
  -3.800  -0.4602   0.00963   0.00328   0.0061  1.0000  0.2979  -1.8272   0.0000   0.0000   0.0000   0.2597
  -3.600  -0.4419   0.00925   0.00313   0.0067  1.0000  0.3513  -1.6951   0.0000   0.0000   0.0000   0.2618
  -3.400  -0.4234   0.00894   0.00300   0.0073  1.0000  0.4008  -1.5779   0.0000   0.0000   0.0000   0.2640
  -3.000  -0.3861   0.00837   0.00278   0.0085  1.0000  0.4985  -1.3777   0.0000   0.0000   0.0000   0.2691
  -2.800  -0.3672   0.00813   0.00272   0.0092  1.0000  0.5446  -1.2778   0.0000   0.0000   0.0000   0.2721
  -2.600  -0.3482   0.00791   0.00268   0.0098  1.0000  0.5899  -1.1795   0.0000   0.0000   0.0000   0.2754
  -2.400  -0.3291   0.00771   0.00267   0.0105  1.0000  0.6336  -1.0829   0.0000   0.0000   0.0000   0.2791
  -2.200  -0.3100   0.00754   0.00267   0.0112  1.0000  0.6770  -0.9881   0.0000   0.0000   0.0000   0.2834
  -2.000  -0.2907   0.00740   0.00269   0.0119  1.0000  0.7180  -0.9103   0.0000   0.0000   0.0000   0.2883
  -1.800  -0.2715   0.00729   0.00274   0.0126  1.0000  0.7584  -0.8351   0.0000   0.0000   0.0000   0.2942
  -1.600  -0.2524   0.00722   0.00280   0.0135  1.0000  0.7966  -0.7619   0.0000   0.0000   0.0000   0.3011
  -1.400  -0.2339   0.00719   0.00287   0.0145  1.0000  0.8319  -0.6995   0.0000   0.0000   0.0000   0.3098
  -1.200  -0.2146   0.00720   0.00298   0.0153  0.9995  0.8654  -0.6394   0.0000   0.0000   0.0000   0.3195
  -1.000  -0.1823   0.00723   0.00306   0.0136  0.9942  0.8950  -0.5673   0.0000   0.0000   0.0000   0.3224
  -0.800  -0.1502   0.00728   0.00314   0.0118  0.9887  0.9187  -0.5035   0.0000   0.0000   0.0000   0.3268
  -0.600  -0.1148   0.00734   0.00321   0.0094  0.9836  0.9366  -0.4458   0.0000   0.0000   0.0000   0.3299
  -0.400  -0.0759   0.00740   0.00326   0.0061  0.9801  0.9499  -0.3935   0.0000   0.0000   0.0000   0.3287
  -0.200  -0.0404   0.00742   0.00328   0.0036  0.9735  0.9616  -0.3512   0.0000   0.0000   0.0000   0.3371
   0.000   0.0000   0.00743   0.00328   0.0000  0.9681  0.9681  -0.3117   0.0000   0.0000   0.0000   0.0947
   0.200   0.0404   0.00742   0.00328  -0.0036  0.9616  0.9735  -0.3512   0.0000   0.0000   0.0000   0.3371
   0.400   0.0759   0.00740   0.00326  -0.0061  0.9499  0.9801  -0.3935   0.0000   0.0000   0.0000   0.3287
   0.600   0.1148   0.00734   0.00321  -0.0094  0.9366  0.9836  -0.4458   0.0000   0.0000   0.0000   0.3299
   0.800   0.1502   0.00728   0.00314  -0.0118  0.9188  0.9887  -0.5035   0.0000   0.0000   0.0000   0.3268
   1.000   0.1823   0.00723   0.00306  -0.0136  0.8950  0.9942  -0.5673   0.0000   0.0000   0.0000   0.3224
   1.200   0.2146   0.00720   0.00297  -0.0153  0.8655  0.9995  -0.6394   0.0000   0.0000   0.0000   0.3195
   1.400   0.2339   0.00719   0.00287  -0.0145  0.8319  1.0000  -0.6994   0.0000   0.0000   0.0000   0.3097
   1.600   0.2524   0.00722   0.00280  -0.0134  0.7967  1.0000  -0.7618   0.0000   0.0000   0.0000   0.3010
   1.800   0.2715   0.00729   0.00274  -0.0126  0.7584  1.0000  -0.8350   0.0000   0.0000   0.0000   0.2942
   2.000   0.2907   0.00740   0.00269  -0.0119  0.7180  1.0000  -0.9102   0.0000   0.0000   0.0000   0.2883
   2.200   0.3099   0.00754   0.00267  -0.0111  0.6770  1.0000  -0.9880   0.0000   0.0000   0.0000   0.2834
   2.400   0.3291   0.00771   0.00267  -0.0105  0.6336  1.0000  -1.0828   0.0000   0.0000   0.0000   0.2791
   2.600   0.3482   0.00791   0.00268  -0.0098  0.5900  1.0000  -1.1794   0.0000   0.0000   0.0000   0.2753
   2.800   0.3672   0.00812   0.00272  -0.0092  0.5446  1.0000  -1.2777   0.0000   0.0000   0.0000   0.2720
   3.000   0.3861   0.00837   0.00278  -0.0085  0.4986  1.0000  -1.3775   0.0000   0.0000   0.0000   0.2691
   3.400   0.4234   0.00893   0.00300  -0.0073  0.4009  1.0000  -1.5777   0.0000   0.0000   0.0000   0.2639
   3.600   0.4419   0.00925   0.00313  -0.0067  0.3513  1.0000  -1.6949   0.0000   0.0000   0.0000   0.2617
   3.800   0.4601   0.00963   0.00328  -0.0060  0.2979  1.0000  -1.8270   0.0000   0.0000   0.0000   0.2597
   4.000   0.4781   0.01006   0.00346  -0.0054  0.2435  1.0000  -1.9597   0.0000   0.0000   0.0000   0.2578
   4.200   0.4962   0.01050   0.00368  -0.0048  0.1939  1.0000  -2.0940   0.0000   0.0000   0.0000   0.2560
   4.400   0.5140   0.01098   0.00394  -0.0042  0.1479  1.0000  -2.2283   0.0000   0.0000   0.0000   0.2543
   4.600   0.5318   0.01150   0.00426  -0.0035  0.1120  1.0000  -2.3618   0.0000   0.0000   0.0000   0.2526
   4.800   0.5495   0.01205   0.00465  -0.0028  0.0880  1.0000  -2.4940   0.0000   0.0000   0.0000   0.2509
   5.000   0.5674   0.01256   0.00507  -0.0020  0.0734  1.0000  -2.6255   0.0000   0.0000   0.0000   0.2493
   5.200   0.5860   0.01294   0.00547  -0.0013  0.0645  1.0000  -2.7597   0.0000   0.0000   0.0000   0.2478
   5.400   0.6034   0.01356   0.00611  -0.0004  0.0573  1.0000  -2.8747   0.0000   0.0000   0.0000   0.2461
   5.600   0.6221   0.01397   0.00654   0.0003  0.0519  1.0000  -3.0066   0.0000   0.0000   0.0000   0.2448
   5.800   0.6386   0.01478   0.00732   0.0013  0.0466  1.0000  -3.1225   0.0000   0.0000   0.0000   0.2432
   6.000   0.6581   0.01506   0.00766   0.0018  0.0427  1.0000  -3.2653   0.0000   0.0000   0.0000   0.2422
   6.200   0.6765   0.01555   0.00814   0.0025  0.0395  1.0000  -3.4023   0.0000   0.0000   0.0000   0.2412
   6.400   0.6914   0.01692   0.00951   0.0037  0.0364  1.0000  -3.5200   0.0000   0.0000   0.0000   0.2394
   6.600   0.7107   0.01736   0.01003   0.0043  0.0351  1.0000  -3.7019   0.0000   0.0000   0.0000   0.2385
   6.800   0.7294   0.01799   0.01074   0.0050  0.0333  1.0000  -3.8753   0.0000   0.0000   0.0000   0.2375
   7.000   0.7479   0.01869   0.01151   0.0057  0.0314  1.0000  -4.0480   0.0000   0.0000   0.0000   0.2366
   7.200   0.7661   0.01943   0.01229   0.0063  0.0297  1.0000  -4.2253   0.0000   0.0000   0.0000   0.2358
   7.400   0.7831   0.02064   0.01359   0.0071  0.0282  1.0000  -4.3732   0.0000   0.0000   0.0000   0.2348
   7.600   0.7971   0.02355   0.01673   0.0082  0.0270  1.0000  -4.4301   0.0000   0.0000   0.0000   0.2334
   7.800   0.8148   0.02447   0.01783   0.0090  0.0264  1.0000  -4.5887   0.0000   0.0000   0.0000   0.2325
   8.000   0.8328   0.02511   0.01863   0.0097  0.0255  1.0000  -4.7681   0.0000   0.0000   0.0000   0.2318
   8.200   0.8501   0.02597   0.01966   0.0104  0.0243  1.0000  -4.9421   0.0000   0.0000   0.0000   0.2310
   8.400   0.8659   0.02731   0.02119   0.0112  0.0236  1.0000  -5.0865   0.0000   0.0000   0.0000   0.2301
   8.600   0.8802   0.02899   0.02309   0.0121  0.0230  1.0000  -5.2052   0.0000   0.0000   0.0000   0.2291
   8.800   0.8935   0.03074   0.02508   0.0131  0.0225  1.0000  -5.3175   0.0000   0.0000   0.0000   0.2280
   9.000   0.9059   0.03248   0.02703   0.0141  0.0220  1.0000  -5.4306   0.0000   0.0000   0.0000   0.2270
   9.200   0.9179   0.03408   0.02882   0.0150  0.0214  1.0000  -5.5560   0.0000   0.0000   0.0000   0.2260
   9.400   0.9287   0.03568   0.03058   0.0159  0.0208  1.0000  -5.6820   0.0000   0.0000   0.0000   0.2250
   9.600   0.9379   0.03737   0.03246   0.0168  0.0202  1.0000  -5.8094   0.0000   0.0000   0.0000   0.2240
   9.800   0.9419   0.03997   0.03526   0.0179  0.0197  1.0000  -5.8629   0.0000   0.0000   0.0000   0.2227
  10.000   0.9361   0.04397   0.03958   0.0194  0.0193  1.0000  -5.7850   0.0000   0.0000   0.0000   0.2209
  10.200   0.9248   0.04822   0.04415   0.0208  0.0192  1.0000  -5.6620   0.0000   0.0000   0.0000   0.2189
  10.400   0.9119   0.05195   0.04813   0.0220  0.0192  1.0000  -5.5596   0.0000   0.0000   0.0000   0.2171
  10.600   0.8972   0.05503   0.05138   0.0231  0.0192  1.0000  -5.4834   0.0000   0.0000   0.0000   0.2152
  10.800   0.8829   0.05838   0.05490   0.0227  0.0192  1.0000  -5.4113   0.0000   0.0000   0.0000   0.2150
  11.000   0.8690   0.06241   0.05908   0.0202  0.0193  1.0000  -5.3304   0.0000   0.0000   0.0000   0.2171
  11.200   0.8540   0.06789   0.06473   0.0152  0.0195  1.0000  -5.2043   0.0000   0.0000   0.0000   0.2222
  11.600   0.7059   0.12081   0.11784  -0.0149  0.0363  1.0000  -2.6066   0.0000   0.0000   0.0000   0.2624
  11.800   0.7032   0.12578   0.12279  -0.0176  0.0362  1.0000  -2.5011   0.0000   0.0000   0.0000   0.2661
  12.000   0.7016   0.13055   0.12754  -0.0205  0.0359  1.0000  -2.3916   0.0000   0.0000   0.0000   0.2703
  12.200   0.6956   0.13685   0.13379  -0.0261  0.0336  1.0000  -2.1655   0.0000   0.0000   0.0000   0.2785
  12.400   0.6952   0.14096   0.13789  -0.0281  0.0325  1.0000  -2.1002   0.0000   0.0000   0.0000   0.2813
  12.600   0.6960   0.14467   0.14159  -0.0297  0.0316  1.0000  -2.0601   0.0000   0.0000   0.0000   0.2835
  12.800   0.6976   0.14810   0.14504  -0.0311  0.0308  1.0000  -2.0340   0.0000   0.0000   0.0000   0.2852
  13.000   0.6998   0.15134   0.14827  -0.0323  0.0301  1.0000  -2.0196   0.0000   0.0000   0.0000   0.2866
  13.200   0.7026   0.15443   0.15136  -0.0334  0.0296  1.0000  -2.0169   0.0000   0.0000   0.0000   0.2877
  13.400   0.7063   0.15736   0.15429  -0.0343  0.0291  1.0000  -2.0268   0.0000   0.0000   0.0000   0.2886
  13.600   0.7108   0.16013   0.15706  -0.0350  0.0286  1.0000  -2.0517   0.0000   0.0000   0.0000   0.2891
  13.800   0.7161   0.16275   0.15968  -0.0355  0.0282  1.0000  -2.0923   0.0000   0.0000   0.0000   0.2891
  14.000   0.7215   0.16531   0.16225  -0.0357  0.0278  1.0000  -2.1434   0.0000   0.0000   0.0000   0.2889
  14.200   0.7263   0.16818   0.16512  -0.0357  0.0274  1.0000  -2.1968   0.0000   0.0000   0.0000   0.2883
  14.400   0.7226   0.17430   0.17121  -0.0371  0.0269  1.0000  -2.0879   0.0000   0.0000   0.0000   0.2904
  14.600   0.7257   0.17797   0.17487  -0.0388  0.0269  1.0000  -2.0489   0.0000   0.0000   0.0000   0.2922
  14.800   0.7290   0.18156   0.17846  -0.0404  0.0268  1.0000  -2.0118   0.0000   0.0000   0.0000   0.2941
  15.000   0.7326   0.18507   0.18196  -0.0421  0.0268  1.0000  -1.9762   0.0000   0.0000   0.0000   0.2960
  15.200   0.7363   0.18846   0.18535  -0.0438  0.0267  1.0000  -1.9415   0.0000   0.0000   0.0000   0.2978
  15.400   0.7396   0.19178   0.18866  -0.0457  0.0266  1.0000  -1.9201   0.0000   0.0000   0.0000   0.2999
  15.600   0.7421   0.19501   0.19189  -0.0480  0.0264  1.0000  -1.8831   0.0000   0.0000   0.0000   0.3026
  15.800   0.7431   0.19819   0.19506  -0.0511  0.0260  1.0000  -1.8058   0.0000   0.0000   0.0000   0.3066
  16.000   0.7465   0.20156   0.19842  -0.0536  0.0251  1.0000  -1.7583   0.0000   0.0000   0.0000   0.3095
  16.200   0.7512   0.20478   0.20164  -0.0553  0.0243  1.0000  -1.7536   0.0000   0.0000   0.0000   0.3112
  16.400   0.7561   0.20790   0.20476  -0.0569  0.0237  1.0000  -1.7612   0.0000   0.0000   0.0000   0.3125
  16.600   0.7611   0.21096   0.20782  -0.0584  0.0231  1.0000  -1.7746   0.0000   0.0000   0.0000   0.3138
  16.800   0.7663   0.21397   0.21083  -0.0599  0.0226  1.0000  -1.7918   0.0000   0.0000   0.0000   0.3149
  17.000   0.7717   0.21692   0.21379  -0.0613  0.0222  1.0000  -1.8122   0.0000   0.0000   0.0000   0.3160
  17.200   0.7771   0.21983   0.21669  -0.0627  0.0217  1.0000  -1.8358   0.0000   0.0000   0.0000   0.3170
  17.400   0.7828   0.22262   0.21949  -0.0641  0.0212  1.0000  -1.8686   0.0000   0.0000   0.0000   0.3179
  17.600   0.7888   0.22521   0.22208  -0.0653  0.0206  1.0000  -1.9186   0.0000   0.0000   0.0000   0.3185
  17.800   0.7952   0.22755   0.22445  -0.0661  0.0200  1.0000  -1.9972   0.0000   0.0000   0.0000   0.3185
  18.000   0.8028   0.22987   0.22678  -0.0661  0.0195  1.0000  -2.1265   0.0000   0.0000   0.0000   0.3174
  18.200   0.8085   0.23588   0.23278  -0.0654  0.0188  1.0000  -2.1912   0.0000   0.0000   0.0000   0.3158
  18.400   0.8137   0.23901   0.23592  -0.0672  0.0188  1.0000  -2.1790   0.0000   0.0000   0.0000   0.3172
  18.600   0.8189   0.24208   0.23899  -0.0690  0.0188  1.0000  -2.1599   0.0000   0.0000   0.0000   0.3187
  18.800   0.8240   0.24504   0.24194  -0.0710  0.0187  1.0000  -2.1296   0.0000   0.0000   0.0000   0.3203
  19.000   0.8280   0.24771   0.24461  -0.0736  0.0186  1.0000  -2.0547   0.0000   0.0000   0.0000   0.3228
  19.200   0.8322   0.25021   0.24709  -0.0772  0.0182  1.0000  -1.9190   0.0000   0.0000   0.0000   0.3265
  19.400   0.8387   0.25348   0.25036  -0.0800  0.0166  1.0000  -1.8084   0.0000   0.0000   0.0000   0.3289
  19.600   0.8448   0.25652   0.25340  -0.0817  0.0157  1.0000  -1.7886   0.0000   0.0000   0.0000   0.3300
  19.800   0.8510   0.25935   0.25624  -0.0834  0.0149  1.0000  -1.7833   0.0000   0.0000   0.0000   0.3309
  20.000   0.8574   0.26206   0.25894  -0.0850  0.0144  1.0000  -1.7871   0.0000   0.0000   0.0000   0.3317
  20.200   0.8638   0.26464   0.26153  -0.0865  0.0139  1.0000  -1.7987   0.0000   0.0000   0.0000   0.3325
  20.400   0.8702   0.26717   0.26406  -0.0881  0.0136  1.0000  -1.8179   0.0000   0.0000   0.0000   0.3332
  20.600   0.8766   0.26962   0.26652  -0.0896  0.0133  1.0000  -1.8453   0.0000   0.0000   0.0000   0.3338
  20.800   0.8830   0.27206   0.26896  -0.0909  0.0130  1.0000  -1.8818   0.0000   0.0000   0.0000   0.3343
  21.000   0.8894   0.27456   0.27147  -0.0922  0.0128  1.0000  -1.9291   0.0000   0.0000   0.0000   0.3345
  21.200   0.8958   0.27736   0.27427  -0.0930  0.0125  1.0000  -1.9903   0.0000   0.0000   0.0000   0.3344
  21.600   0.9072   0.28679   0.28371  -0.0946  0.0121  1.0000  -1.9927   0.0000   0.0000   0.0000   0.3342
  21.800   0.9134   0.28962   0.28655  -0.0965  0.0121  1.0000  -1.9726   0.0000   0.0000   0.0000   0.3353
  22.000   0.9195   0.29242   0.28934  -0.0984  0.0121  1.0000  -1.9536   0.0000   0.0000   0.0000   0.3363
  22.200   0.9256   0.29519   0.29211  -0.1003  0.0121  1.0000  -1.9355   0.0000   0.0000   0.0000   0.3374
  22.400   0.9316   0.29792   0.29485  -0.1022  0.0121  1.0000  -1.9176   0.0000   0.0000   0.0000   0.3384
  22.600   0.9375   0.30055   0.29748  -0.1043  0.0120  1.0000  -1.8923   0.0000   0.0000   0.0000   0.3396
  22.800   0.9434   0.30316   0.30009  -0.1064  0.0120  1.0000  -1.8677   0.0000   0.0000   0.0000   0.3408
  23.000   0.9494   0.30578   0.30271  -0.1086  0.0120  1.0000  -1.8442   0.0000   0.0000   0.0000   0.3420
  23.200   0.9553   0.30839   0.30532  -0.1107  0.0120  1.0000  -1.8214   0.0000   0.0000   0.0000   0.3432
  23.400   0.9613   0.31099   0.30793  -0.1128  0.0119  1.0000  -1.7991   0.0000   0.0000   0.0000   0.3443
  23.600   0.9674   0.31361   0.31055  -0.1149  0.0119  1.0000  -1.7770   0.0000   0.0000   0.0000   0.3454
  23.800   0.9735   0.31623   0.31317  -0.1171  0.0118  1.0000  -1.7548   0.0000   0.0000   0.0000   0.3465
  24.000   0.9797   0.31887   0.31582  -0.1192  0.0118  1.0000  -1.7319   0.0000   0.0000   0.0000   0.3476
  24.200   0.9861   0.32156   0.31851  -0.1214  0.0117  1.0000  -1.7082   0.0000   0.0000   0.0000   0.3486
  24.400   0.9925   0.32432   0.32128  -0.1235  0.0115  1.0000  -1.6846   0.0000   0.0000   0.0000   0.3496
  24.600   0.9990   0.32717   0.32413  -0.1255  0.0113  1.0000  -1.6638   0.0000   0.0000   0.0000   0.3505
  24.800   1.0053   0.33007   0.32704  -0.1275  0.0111  1.0000  -1.6493   0.0000   0.0000   0.0000   0.3513
  25.000   1.0114   0.33299   0.32996  -0.1294  0.0108  1.0000  -1.6408   0.0000   0.0000   0.0000   0.3520


