xflr5 v6.59

 Calculated polar for: NACA 0009

 1 1 Reynolds number fixed          Mach number fixed         

 xtrf =   1.000 (top)        1.000 (bottom)
 Mach =   0.000     Re =     0.300 e 6     Ncrit =   9.000

  alpha     CL        CD       CDp       Cm    Top Xtr Bot Xtr   Cpmin    Chinge    XCp    
 ------- -------- --------- --------- -------- ------- ------- -------- --------- ---------
 -25.000  -0.5683   0.21914   0.21664   0.0528  1.0000  0.0120  -0.8640   0.0000   0.0000   0.0000   0.3298
 -24.750  -0.5627   0.21505   0.21255   0.0510  1.0000  0.0120  -0.8814   0.0000   0.0000   0.0000   0.3279
 -24.500  -0.5571   0.21093   0.20842   0.0491  1.0000  0.0121  -0.8997   0.0000   0.0000   0.0000   0.3259
 -24.250  -0.5513   0.20679   0.20428   0.0473  1.0000  0.0121  -0.9190   0.0000   0.0000   0.0000   0.3239
 -24.000  -0.5456   0.20263   0.20012   0.0454  1.0000  0.0121  -0.9395   0.0000   0.0000   0.0000   0.3218
 -23.750  -0.5396   0.19840   0.19587   0.0436  1.0000  0.0121  -0.9575   0.0000   0.0000   0.0000   0.3197
 -23.250  -0.5208   0.18540   0.18288   0.0407  1.0000  0.0125  -0.9263   0.0000   0.0000   0.0000   0.3181
 -23.000  -0.5118   0.18044   0.17791   0.0393  1.0000  0.0128  -0.8724   0.0000   0.0000   0.0000   0.3174
 -22.750  -0.5039   0.17615   0.17362   0.0378  1.0000  0.0131  -0.8368   0.0000   0.0000   0.0000   0.3162
 -22.500  -0.4964   0.17204   0.16951   0.0362  1.0000  0.0135  -0.8122   0.0000   0.0000   0.0000   0.3147
 -22.250  -0.4890   0.16798   0.16544   0.0346  1.0000  0.0139  -0.7958   0.0000   0.0000   0.0000   0.3130
 -22.000  -0.4817   0.16391   0.16137   0.0330  1.0000  0.0145  -0.7863   0.0000   0.0000   0.0000   0.3112
 -21.750  -0.4743   0.15982   0.15728   0.0314  1.0000  0.0151  -0.7831   0.0000   0.0000   0.0000   0.3093
 -21.500  -0.4670   0.15571   0.15317   0.0297  1.0000  0.0159  -0.7871   0.0000   0.0000   0.0000   0.3072
 -21.250  -0.4597   0.15161   0.14906   0.0280  1.0000  0.0170  -0.8040   0.0000   0.0000   0.0000   0.3049
 -21.000  -0.4545   0.14826   0.14571   0.0260  1.0000  0.0183  -0.8813   0.0000   0.0000   0.0000   0.3014
 -20.750  -0.4514   0.14547   0.14292   0.0237  1.0000  0.0186  -0.9766   0.0000   0.0000   0.0000   0.2968
 -20.500  -0.4478   0.14224   0.13967   0.0215  1.0000  0.0188  -1.0559   0.0000   0.0000   0.0000   0.2924
 -20.250  -0.4422   0.13852   0.13596   0.0196  1.0000  0.0188  -1.0944   0.0000   0.0000   0.0000   0.2890
 -20.000  -0.4261   0.13035   0.12779   0.0190  1.0000  0.0196  -0.9940   0.0000   0.0000   0.0000   0.2901
 -19.750  -0.4156   0.12657   0.12401   0.0180  1.0000  0.0205  -0.8957   0.0000   0.0000   0.0000   0.2895
 -19.500  -0.4071   0.12314   0.12058   0.0166  1.0000  0.0218  -0.8406   0.0000   0.0000   0.0000   0.2876
 -19.250  -0.3992   0.11954   0.11698   0.0151  1.0000  0.0229  -0.8123   0.0000   0.0000   0.0000   0.2850
 -19.000  -0.3915   0.11586   0.11330   0.0135  1.0000  0.0238  -0.7935   0.0000   0.0000   0.0000   0.2821
 -18.750  -0.3840   0.11223   0.10967   0.0119  1.0000  0.0247  -0.7800   0.0000   0.0000   0.0000   0.2789
 -18.500  -0.3775   0.10887   0.10631   0.0101  1.0000  0.0258  -0.7859   0.0000   0.0000   0.0000   0.2750
 -18.250  -0.3735   0.10613   0.10357   0.0079  1.0000  0.0264  -0.8224   0.0000   0.0000   0.0000   0.2696
 -18.000  -0.3696   0.10326   0.10070   0.0057  1.0000  0.0266  -0.8502   0.0000   0.0000   0.0000   0.2641
 -17.750  -0.3648   0.10010   0.09755   0.0037  1.0000  0.0268  -0.8648   0.0000   0.0000   0.0000   0.2590
 -17.500  -0.3587   0.09671   0.09416   0.0019  1.0000  0.0268  -0.8646   0.0000   0.0000   0.0000   0.2545
 -17.000  -0.3405   0.08698   0.08445  -0.0011  1.0000  0.0275  -0.8814   0.0000   0.0000   0.0000   0.2468
 -16.750  -0.3261   0.08304   0.08049  -0.0014  1.0000  0.0282  -0.7930   0.0000   0.0000   0.0000   0.2463
 -16.500  -0.3158   0.07986   0.07731  -0.0024  1.0000  0.0289  -0.7501   0.0000   0.0000   0.0000   0.2436
 -16.250  -0.3068   0.07678   0.07424  -0.0037  1.0000  0.0299  -0.7279   0.0000   0.0000   0.0000   0.2400
 -16.000  -0.2985   0.07369   0.07116  -0.0050  1.0000  0.0310  -0.7207   0.0000   0.0000   0.0000   0.2356
 -15.750  -0.2908   0.07057   0.06804  -0.0065  1.0000  0.0325  -0.7279   0.0000   0.0000   0.0000   0.2305
 -15.500  -0.2852   0.06751   0.06499  -0.0083  1.0000  0.0347  -0.7708   0.0000   0.0000   0.0000   0.2238
 -15.250  -0.2877   0.06518   0.06267  -0.0114  1.0000  0.0360  -0.9015   0.0000   0.0000   0.0000   0.2129
 -15.000  -0.2840   0.06223   0.05973  -0.0135  1.0000  0.0363  -0.9702   0.0000   0.0000   0.0000   0.2051
 -14.750  -0.2775   0.05711   0.05463  -0.0154  1.0000  0.0369  -1.0424   0.0000   0.0000   0.0000   0.1973
 -14.500  -0.2569   0.05440   0.05193  -0.0144  1.0000  0.0391  -0.8829   0.0000   0.0000   0.0000   0.1982
 -14.250  -0.2474   0.05197   0.04949  -0.0153  1.0000  0.0414  -0.8506   0.0000   0.0000   0.0000   0.1930
 -14.000  -0.2417   0.04931   0.04684  -0.0169  1.0000  0.0444  -0.8675   0.0000   0.0000   0.0000   0.1851
 -13.750  -0.2483   0.04701   0.04456  -0.0206  1.0000  0.0468  -1.0183   0.0000   0.0000   0.0000   0.1716
 -13.500  -0.2465   0.04449   0.04205  -0.0227  1.0000  0.0471  -1.0769   0.0000   0.0000   0.0000   0.1620
 -13.250  -0.2235   0.04099   0.03857  -0.0214  1.0000  0.0502  -0.8811   0.0000   0.0000   0.0000   0.1604
 -13.000  -0.2147   0.03876   0.03632  -0.0222  1.0000  0.0516  -0.8348   0.0000   0.0000   0.0000   0.1532
 -12.750  -0.2079   0.03644   0.03401  -0.0234  1.0000  0.0533  -0.8199   0.0000   0.0000   0.0000   0.1447
 -12.500  -0.2035   0.03402   0.03160  -0.0249  1.0000  0.0553  -0.8302   0.0000   0.0000   0.0000   0.1352
 -12.250  -0.2286   0.02436   0.02201  -0.0329  1.0000  0.0368  -1.5020   0.0000   0.0000   0.0000   0.1098
 -12.000  -0.2249   0.02167   0.01932  -0.0341  1.0000  0.0355  -1.5364   0.0000   0.0000   0.0000   0.1021
 -11.750  -0.2505   0.01462   0.01231  -0.0409  1.0000  0.0334  -2.0146   0.0000   0.0000   0.0000   0.0887
 -11.500  -0.2963   0.00875   0.00631  -0.0500  1.0000  0.0313  -2.5479   0.0000   0.0000   0.0000   0.0809
 -11.250  -0.8479   0.06980   0.06666  -0.0135  1.0000  0.0196  -5.1405   0.0000   0.0000   0.0000   0.2241
 -11.000  -0.8686   0.06229   0.05896  -0.0205  1.0000  0.0193  -5.3331   0.0000   0.0000   0.0000   0.2168
 -10.750  -0.8861   0.05741   0.05389  -0.0231  1.0000  0.0192  -5.4315   0.0000   0.0000   0.0000   0.2146
 -10.500  -0.9043   0.05342   0.04969  -0.0228  1.0000  0.0192  -5.5218   0.0000   0.0000   0.0000   0.2158
 -10.250  -0.9215   0.04916   0.04516  -0.0212  1.0000  0.0192  -5.6352   0.0000   0.0000   0.0000   0.2184
 -10.000  -0.9360   0.04394   0.03954  -0.0194  1.0000  0.0193  -5.7859   0.0000   0.0000   0.0000   0.2208
  -9.750  -0.9416   0.03916   0.03439  -0.0176  1.0000  0.0198  -5.8620   0.0000   0.0000   0.0000   0.2230
  -9.500  -0.9335   0.03647   0.03144  -0.0164  1.0000  0.0205  -5.7468   0.0000   0.0000   0.0000   0.2245
  -9.250  -0.9205   0.03449   0.02927  -0.0152  1.0000  0.0213  -5.5855   0.0000   0.0000   0.0000   0.2257
  -9.000  -0.9057   0.03248   0.02703  -0.0141  1.0000  0.0220  -5.4301   0.0000   0.0000   0.0000   0.2269
  -8.750  -0.8901   0.03029   0.02458  -0.0129  1.0000  0.0227  -5.2894   0.0000   0.0000   0.0000   0.2282
  -8.500  -0.8731   0.02813   0.02212  -0.0117  1.0000  0.0233  -5.1466   0.0000   0.0000   0.0000   0.2296
  -8.250  -0.8542   0.02624   0.01996  -0.0106  1.0000  0.0241  -4.9829   0.0000   0.0000   0.0000   0.2308
  -8.000  -0.8328   0.02511   0.01863  -0.0097  1.0000  0.0255  -4.7678   0.0000   0.0000   0.0000   0.2318
  -7.750  -0.8101   0.02434   0.01765  -0.0088  1.0000  0.0266  -4.5432   0.0000   0.0000   0.0000   0.2327
  -7.500  -0.7905   0.02182   0.01485  -0.0076  1.0000  0.0275  -4.4171   0.0000   0.0000   0.0000   0.2342
  -7.250  -0.7705   0.01965   0.01252  -0.0065  1.0000  0.0293  -4.2688   0.0000   0.0000   0.0000   0.2356
  -7.000  -0.7479   0.01869   0.01151  -0.0057  1.0000  0.0314  -4.0479   0.0000   0.0000   0.0000   0.2366
  -6.750  -0.7247   0.01782   0.01056  -0.0048  1.0000  0.0338  -3.8324   0.0000   0.0000   0.0000   0.2378
  -6.500  -0.7011   0.01711   0.00974  -0.0040  1.0000  0.0358  -3.6124   0.0000   0.0000   0.0000   0.2390
  -6.250  -0.6809   0.01573   0.00832  -0.0027  1.0000  0.0388  -3.4340   0.0000   0.0000   0.0000   0.2409
  -6.000  -0.6581   0.01506   0.00766  -0.0018  1.0000  0.0427  -3.2654   0.0000   0.0000   0.0000   0.2422
  -5.750  -0.6337   0.01472   0.00725  -0.0011  1.0000  0.0473  -3.0875   0.0000   0.0000   0.0000   0.2434
  -5.500  -0.6129   0.01376   0.00633   0.0000  1.0000  0.0545  -2.9393   0.0000   0.0000   0.0000   0.2455
  -5.250  -0.5905   0.01309   0.00559   0.0011  1.0000  0.0624  -2.7924   0.0000   0.0000   0.0000   0.2474
  -5.000  -0.5675   0.01256   0.00508   0.0020  1.0000  0.0734  -2.6257   0.0000   0.0000   0.0000   0.2493
  -4.750  -0.5453   0.01188   0.00453   0.0030  1.0000  0.0935  -2.4622   0.0000   0.0000   0.0000   0.2514
  -4.500  -0.5230   0.01124   0.00410   0.0039  1.0000  0.1282  -2.2953   0.0000   0.0000   0.0000   0.2535
  -4.250  -0.5007   0.01062   0.00374   0.0047  1.0000  0.1815  -2.1279   0.0000   0.0000   0.0000   0.2556
  -4.000  -0.4782   0.01006   0.00346   0.0054  1.0000  0.2435  -1.9599   0.0000   0.0000   0.0000   0.2578
  -3.750  -0.4556   0.00954   0.00324   0.0062  1.0000  0.3119  -1.7940   0.0000   0.0000   0.0000   0.2602
  -3.500  -0.4327   0.00909   0.00306   0.0070  1.0000  0.3761  -1.6290   0.0000   0.0000   0.0000   0.2628
  -3.250  -0.4095   0.00870   0.00288   0.0077  1.0000  0.4384  -1.5046   0.0000   0.0000   0.0000   0.2658
  -3.000  -0.3861   0.00837   0.00278   0.0085  1.0000  0.4985  -1.3777   0.0000   0.0000   0.0000   0.2691
  -2.750  -0.3625   0.00807   0.00271   0.0093  1.0000  0.5563  -1.2531   0.0000   0.0000   0.0000   0.2729
  -2.500  -0.3387   0.00780   0.00267   0.0101  1.0000  0.6122  -1.1311   0.0000   0.0000   0.0000   0.2772
  -2.250  -0.3148   0.00758   0.00267   0.0110  1.0000  0.6659  -1.0117   0.0000   0.0000   0.0000   0.2823
  -2.000  -0.2907   0.00740   0.00269   0.0119  1.0000  0.7181  -0.9103   0.0000   0.0000   0.0000   0.2883
  -1.750  -0.2667   0.00727   0.00275   0.0128  1.0000  0.7683  -0.8165   0.0000   0.0000   0.0000   0.2957
  -1.500  -0.2432   0.00720   0.00285   0.0140  1.0000  0.8146  -0.7296   0.0000   0.0000   0.0000   0.3053
  -1.250  -0.2204   0.00719   0.00295   0.0153  1.0000  0.8572  -0.6557   0.0000   0.0000   0.0000   0.3174
  -1.000  -0.1823   0.00723   0.00306   0.0136  0.9942  0.8950  -0.5673   0.0000   0.0000   0.0000   0.3224
  -0.750  -0.1421   0.00729   0.00315   0.0114  0.9870  0.9242  -0.4895   0.0000   0.0000   0.0000   0.3280
  -0.500  -0.0967   0.00737   0.00323   0.0080  0.9814  0.9450  -0.4197   0.0000   0.0000   0.0000   0.3311
  -0.250  -0.0491   0.00742   0.00328   0.0042  0.9753  0.9586  -0.3613   0.0000   0.0000   0.0000   0.3336
   0.000   0.0000   0.00743   0.00328   0.0000  0.9681  0.9681  -0.3117   0.0000   0.0000   0.0000   0.0947
   0.250   0.0491   0.00742   0.00328  -0.0042  0.9586  0.9753  -0.3613   0.0000   0.0000   0.0000   0.3336
   0.500   0.0967   0.00737   0.00323  -0.0080  0.9450  0.9814  -0.4197   0.0000   0.0000   0.0000   0.3311
   0.750   0.1421   0.00729   0.00315  -0.0114  0.9242  0.9870  -0.4895   0.0000   0.0000   0.0000   0.3280
   1.000   0.1823   0.00723   0.00306  -0.0136  0.8950  0.9942  -0.5673   0.0000   0.0000   0.0000   0.3224
   1.250   0.2203   0.00719   0.00295  -0.0153  0.8572  1.0000  -0.6556   0.0000   0.0000   0.0000   0.3174
   1.500   0.2431   0.00719   0.00285  -0.0140  0.8146  1.0000  -0.7295   0.0000   0.0000   0.0000   0.3053
   1.750   0.2666   0.00727   0.00275  -0.0128  0.7683  1.0000  -0.8164   0.0000   0.0000   0.0000   0.2957
   2.000   0.2907   0.00740   0.00269  -0.0119  0.7181  1.0000  -0.9102   0.0000   0.0000   0.0000   0.2883
   2.250   0.3147   0.00758   0.00267  -0.0110  0.6660  1.0000  -1.0115   0.0000   0.0000   0.0000   0.2823
   2.500   0.3387   0.00780   0.00267  -0.0101  0.6123  1.0000  -1.1309   0.0000   0.0000   0.0000   0.2772
   2.750   0.3625   0.00807   0.00271  -0.0093  0.5564  1.0000  -1.2530   0.0000   0.0000   0.0000   0.2728
   3.000   0.3861   0.00837   0.00278  -0.0085  0.4986  1.0000  -1.3775   0.0000   0.0000   0.0000   0.2691
   3.250   0.4095   0.00870   0.00288  -0.0077  0.4385  1.0000  -1.5044   0.0000   0.0000   0.0000   0.2658
   3.500   0.4326   0.00909   0.00306  -0.0070  0.3762  1.0000  -1.6288   0.0000   0.0000   0.0000   0.2628
   3.750   0.4555   0.00954   0.00324  -0.0062  0.3120  1.0000  -1.7938   0.0000   0.0000   0.0000   0.2602
   4.000   0.4781   0.01006   0.00346  -0.0054  0.2435  1.0000  -1.9597   0.0000   0.0000   0.0000   0.2578
   4.250   0.5006   0.01062   0.00374  -0.0047  0.1816  1.0000  -2.1277   0.0000   0.0000   0.0000   0.2556
   4.500   0.5229   0.01124   0.00410  -0.0038  0.1282  1.0000  -2.2951   0.0000   0.0000   0.0000   0.2534
   4.750   0.5453   0.01188   0.00453  -0.0030  0.0935  1.0000  -2.4621   0.0000   0.0000   0.0000   0.2514
   5.000   0.5674   0.01256   0.00507  -0.0020  0.0734  1.0000  -2.6255   0.0000   0.0000   0.0000   0.2493
   5.250   0.5904   0.01309   0.00559  -0.0011  0.0624  1.0000  -2.7923   0.0000   0.0000   0.0000   0.2474
   5.500   0.6128   0.01375   0.00633  -0.0000  0.0545  1.0000  -2.9392   0.0000   0.0000   0.0000   0.2454
   5.750   0.6337   0.01472   0.00724   0.0011  0.0473  1.0000  -3.0875   0.0000   0.0000   0.0000   0.2434
   6.000   0.6581   0.01506   0.00766   0.0018  0.0427  1.0000  -3.2653   0.0000   0.0000   0.0000   0.2422
   6.250   0.6809   0.01573   0.00832   0.0027  0.0388  1.0000  -3.4340   0.0000   0.0000   0.0000   0.2409
   6.500   0.7011   0.01711   0.00974   0.0040  0.0358  1.0000  -3.6124   0.0000   0.0000   0.0000   0.2390
   6.750   0.7247   0.01782   0.01056   0.0048  0.0338  1.0000  -3.8324   0.0000   0.0000   0.0000   0.2378
   7.000   0.7479   0.01869   0.01151   0.0057  0.0314  1.0000  -4.0480   0.0000   0.0000   0.0000   0.2366
   7.250   0.7705   0.01965   0.01252   0.0065  0.0293  1.0000  -4.2689   0.0000   0.0000   0.0000   0.2356
   7.500   0.7905   0.02182   0.01485   0.0076  0.0275  1.0000  -4.4171   0.0000   0.0000   0.0000   0.2342
   7.750   0.8102   0.02434   0.01765   0.0088  0.0266  1.0000  -4.5435   0.0000   0.0000   0.0000   0.2327
   8.000   0.8328   0.02511   0.01863   0.0097  0.0255  1.0000  -4.7681   0.0000   0.0000   0.0000   0.2318
   8.250   0.8542   0.02624   0.01996   0.0105  0.0241  1.0000  -4.9832   0.0000   0.0000   0.0000   0.2308
   8.500   0.8732   0.02814   0.02213   0.0116  0.0233  1.0000  -5.1469   0.0000   0.0000   0.0000   0.2296
   8.750   0.8902   0.03030   0.02458   0.0129  0.0227  1.0000  -5.2898   0.0000   0.0000   0.0000   0.2283
   9.000   0.9059   0.03248   0.02703   0.0141  0.0220  1.0000  -5.4306   0.0000   0.0000   0.0000   0.2270
   9.250   0.9206   0.03449   0.02927   0.0152  0.0213  1.0000  -5.5862   0.0000   0.0000   0.0000   0.2257
   9.500   0.9337   0.03647   0.03145   0.0163  0.0205  1.0000  -5.7477   0.0000   0.0000   0.0000   0.2245
   9.750   0.9418   0.03918   0.03440   0.0176  0.0198  1.0000  -5.8624   0.0000   0.0000   0.0000   0.2231
  10.000   0.9361   0.04397   0.03958   0.0194  0.0193  1.0000  -5.7850   0.0000   0.0000   0.0000   0.2209
  10.250   0.9217   0.04921   0.04521   0.0211  0.0192  1.0000  -5.6338   0.0000   0.0000   0.0000   0.2185
  10.500   0.9046   0.05348   0.04975   0.0227  0.0192  1.0000  -5.5201   0.0000   0.0000   0.0000   0.2160
  10.750   0.8864   0.05750   0.05398   0.0230  0.0192  1.0000  -5.4296   0.0000   0.0000   0.0000   0.2148
  11.000   0.8690   0.06241   0.05908   0.0202  0.0193  1.0000  -5.3304   0.0000   0.0000   0.0000   0.2171
  11.250   0.8479   0.07014   0.06702   0.0129  0.0197  1.0000  -5.1270   0.0000   0.0000   0.0000   0.2248
  11.750   0.2326   0.00867   0.00646   0.0426  0.0336  1.0000  -2.0306   0.0000   0.0000   0.0000   0.0708
  12.000   0.1985   0.01389   0.01167   0.0364  0.0356  1.0000  -1.5293   0.0000   0.0000   0.0000   0.0738
  12.750   0.6971   0.14728   0.14419  -0.0308  0.0310  1.0000  -2.0396   0.0000   0.0000   0.0000   0.2848
  13.000   0.6998   0.15134   0.14827  -0.0323  0.0301  1.0000  -2.0196   0.0000   0.0000   0.0000   0.2866
  13.250   0.7035   0.15517   0.15210  -0.0336  0.0294  1.0000  -2.0182   0.0000   0.0000   0.0000   0.2880
  13.500   0.7084   0.15876   0.15569  -0.0347  0.0288  1.0000  -2.0371   0.0000   0.0000   0.0000   0.2889
  13.750   0.7147   0.16210   0.15903  -0.0354  0.0283  1.0000  -2.0812   0.0000   0.0000   0.0000   0.2891
  14.000   0.7215   0.16531   0.16225  -0.0357  0.0278  1.0000  -2.1434   0.0000   0.0000   0.0000   0.2889
  14.250   0.7204   0.17150   0.16841  -0.0359  0.0269  1.0000  -2.1186   0.0000   0.0000   0.0000   0.2890
  14.500   0.7241   0.17614   0.17305  -0.0379  0.0269  1.0000  -2.0682   0.0000   0.0000   0.0000   0.2913
  14.750   0.7282   0.18067   0.17757  -0.0400  0.0269  1.0000  -2.0209   0.0000   0.0000   0.0000   0.2936
  15.000   0.7326   0.18507   0.18196  -0.0421  0.0268  1.0000  -1.9762   0.0000   0.0000   0.0000   0.2960
  15.250   0.7372   0.18929   0.18618  -0.0442  0.0267  1.0000  -1.9350   0.0000   0.0000   0.0000   0.2983
  15.500   0.7410   0.19341   0.19030  -0.0468  0.0265  1.0000  -1.9045   0.0000   0.0000   0.0000   0.3012
  15.750   0.7427   0.19736   0.19424  -0.0503  0.0261  1.0000  -1.8269   0.0000   0.0000   0.0000   0.3056
  16.000   0.7465   0.20156   0.19842  -0.0536  0.0251  1.0000  -1.7583   0.0000   0.0000   0.0000   0.3095
  16.250   0.7524   0.20557   0.20243  -0.0557  0.0242  1.0000  -1.7547   0.0000   0.0000   0.0000   0.3115
  16.500   0.7586   0.20944   0.20630  -0.0577  0.0234  1.0000  -1.7674   0.0000   0.0000   0.0000   0.3132
  16.750   0.7650   0.21322   0.21008  -0.0595  0.0228  1.0000  -1.7872   0.0000   0.0000   0.0000   0.3146
  17.000   0.7717   0.21692   0.21379  -0.0613  0.0222  1.0000  -1.8122   0.0000   0.0000   0.0000   0.3160
  17.250   0.7785   0.22054   0.21740  -0.0631  0.0216  1.0000  -1.8428   0.0000   0.0000   0.0000   0.3173
  17.500   0.7858   0.22394   0.22081  -0.0647  0.0209  1.0000  -1.8909   0.0000   0.0000   0.0000   0.3182
  17.750   0.7935   0.22701   0.22388  -0.0660  0.0202  1.0000  -1.9734   0.0000   0.0000   0.0000   0.3186
  18.000   0.8028   0.22987   0.22678  -0.0661  0.0195  1.0000  -2.1265   0.0000   0.0000   0.0000   0.3174
  18.250   0.8098   0.23667   0.23357  -0.0658  0.0188  1.0000  -2.1886   0.0000   0.0000   0.0000   0.3161
  18.500   0.8163   0.24056   0.23746  -0.0681  0.0188  1.0000  -2.1705   0.0000   0.0000   0.0000   0.3179
  18.750   0.8228   0.24431   0.24122  -0.0705  0.0187  1.0000  -2.1391   0.0000   0.0000   0.0000   0.3198
  19.000   0.8280   0.24772   0.24461  -0.0736  0.0186  1.0000  -2.0547   0.0000   0.0000   0.0000   0.3228
  19.250   0.8338   0.25099   0.24787  -0.0783  0.0178  1.0000  -1.8658   0.0000   0.0000   0.0000   0.3276
  19.500   0.8418   0.25502   0.25190  -0.0809  0.0161  1.0000  -1.7959   0.0000   0.0000   0.0000   0.3295
  19.750   0.8495   0.25867   0.25556  -0.0829  0.0151  1.0000  -1.7837   0.0000   0.0000   0.0000   0.3307
  20.000   0.8574   0.26207   0.25896  -0.0850  0.0144  1.0000  -1.7871   0.0000   0.0000   0.0000   0.3317
  20.250   0.8654   0.26529   0.26218  -0.0869  0.0138  1.0000  -1.8028   0.0000   0.0000   0.0000   0.3327
  20.500   0.8734   0.26840   0.26529  -0.0888  0.0134  1.0000  -1.8305   0.0000   0.0000   0.0000   0.3335
  20.750   0.8814   0.27145   0.26835  -0.0906  0.0131  1.0000  -1.8718   0.0000   0.0000   0.0000   0.3342
  21.000   0.8894   0.27456   0.27147  -0.0922  0.0128  1.0000  -1.9291   0.0000   0.0000   0.0000   0.3345
  21.250   0.8974   0.27820   0.27511  -0.0931  0.0125  1.0000  -2.0086   0.0000   0.0000   0.0000   0.3343
  21.500   0.9042   0.28536   0.28228  -0.0936  0.0121  1.0000  -2.0031   0.0000   0.0000   0.0000   0.3337
  21.750   0.9118   0.28892   0.28584  -0.0960  0.0121  1.0000  -1.9776   0.0000   0.0000   0.0000   0.3350
  22.000   0.9195   0.29242   0.28934  -0.0984  0.0121  1.0000  -1.9536   0.0000   0.0000   0.0000   0.3363
  22.250   0.9271   0.29587   0.29280  -0.1008  0.0121  1.0000  -1.9309   0.0000   0.0000   0.0000   0.3376
  22.500   0.9346   0.29924   0.29617  -0.1033  0.0121  1.0000  -1.9051   0.0000   0.0000   0.0000   0.3390
  22.750   0.9419   0.30251   0.29944  -0.1059  0.0120  1.0000  -1.8738   0.0000   0.0000   0.0000   0.3405
  23.000   0.9494   0.30578   0.30271  -0.1086  0.0120  1.0000  -1.8442   0.0000   0.0000   0.0000   0.3420
  23.250   0.9568   0.30904   0.30597  -0.1112  0.0120  1.0000  -1.8158   0.0000   0.0000   0.0000   0.3434
  23.500   0.9644   0.31231   0.30924  -0.1139  0.0119  1.0000  -1.7881   0.0000   0.0000   0.0000   0.3449
  23.750   0.9720   0.31557   0.31251  -0.1165  0.0119  1.0000  -1.7604   0.0000   0.0000   0.0000   0.3462
  24.000   0.9797   0.31887   0.31582  -0.1192  0.0118  1.0000  -1.7319   0.0000   0.0000   0.0000   0.3476
  24.250   0.9877   0.32224   0.31919  -0.1219  0.0116  1.0000  -1.7023   0.0000   0.0000   0.0000   0.3489
  24.500   0.9957   0.32576   0.32271  -0.1245  0.0114  1.0000  -1.6735   0.0000   0.0000   0.0000   0.3500
  24.750   1.0037   0.32935   0.32631  -0.1270  0.0111  1.0000  -1.6522   0.0000   0.0000   0.0000   0.3511
  25.000   1.0114   0.33299   0.32996  -0.1294  0.0108  1.0000  -1.6408   0.0000   0.0000   0.0000   0.3520


