xflr5 v6.59

 Calculated polar for: TKV2008

 1 1 Reynolds number fixed          Mach number fixed         

 xtrf =   1.000 (top)        1.000 (bottom)
 Mach =   0.000     Re =     0.270 e 6     Ncrit =   9.000

  alpha     CL        CD       CDp       Cm    Top Xtr Bot Xtr   Cpmin    Chinge    XCp    
 ------- -------- --------- --------- -------- ------- ------- -------- --------- ---------
 -22.250  -0.3844   0.24483   0.24116  -0.0131  1.0000  0.0120  -1.3315   0.0000   0.0000   0.0000   0.1733
 -22.000  -0.3771   0.24263   0.23898  -0.0143  1.0000  0.0121  -1.3069   0.0000   0.0000   0.0000   0.1694
 -21.750  -0.3699   0.24049   0.23684  -0.0155  1.0000  0.0122  -1.2882   0.0000   0.0000   0.0000   0.1653
 -21.500  -0.3626   0.23833   0.23470  -0.0167  1.0000  0.0123  -1.2734   0.0000   0.0000   0.0000   0.1610
 -21.250  -0.3552   0.23621   0.23259  -0.0179  1.0000  0.0125  -1.2611   0.0000   0.0000   0.0000   0.1565
 -21.000  -0.3478   0.23403   0.23043  -0.0190  1.0000  0.0126  -1.2505   0.0000   0.0000   0.0000   0.1518
 -20.750  -0.3405   0.23185   0.22826  -0.0202  1.0000  0.0127  -1.2409   0.0000   0.0000   0.0000   0.1471
 -20.500  -0.3333   0.22965   0.22607  -0.0213  1.0000  0.0129  -1.2344   0.0000   0.0000   0.0000   0.1422
 -20.250  -0.3260   0.22744   0.22388  -0.0224  1.0000  0.0130  -1.2341   0.0000   0.0000   0.0000   0.1372
 -20.000  -0.3188   0.22525   0.22170  -0.0234  1.0000  0.0131  -1.2343   0.0000   0.0000   0.0000   0.1320
 -19.750  -0.3117   0.22301   0.21948  -0.0244  1.0000  0.0133  -1.2354   0.0000   0.0000   0.0000   0.1268
 -19.500  -0.3046   0.22077   0.21725  -0.0254  1.0000  0.0134  -1.2377   0.0000   0.0000   0.0000   0.1214
 -19.250  -0.2975   0.21853   0.21502  -0.0264  1.0000  0.0135  -1.2419   0.0000   0.0000   0.0000   0.1158
 -19.000  -0.2906   0.21628   0.21280  -0.0273  1.0000  0.0136  -1.2486   0.0000   0.0000   0.0000   0.1100
 -18.000  -0.2638   0.20736   0.20395  -0.0306  1.0000  0.0138  -1.2537   0.0000   0.0000   0.0000   0.0864
 -17.750  -0.2574   0.20522   0.20184  -0.0312  1.0000  0.0139  -1.2314   0.0000   0.0000   0.0000   0.0807
 -17.500  -0.2510   0.20311   0.19975  -0.0318  1.0000  0.0141  -1.2151   0.0000   0.0000   0.0000   0.0748
 -17.250  -0.2448   0.20099   0.19765  -0.0324  1.0000  0.0142  -1.2042   0.0000   0.0000   0.0000   0.0689
 -17.000  -0.2387   0.19887   0.19556  -0.0329  1.0000  0.0144  -1.2022   0.0000   0.0000   0.0000   0.0629
 -16.750  -0.2329   0.19676   0.19347  -0.0334  1.0000  0.0145  -1.2018   0.0000   0.0000   0.0000   0.0570
 -16.500  -0.2272   0.19466   0.19139  -0.0338  1.0000  0.0147  -1.2024   0.0000   0.0000   0.0000   0.0513
 -15.500  -0.0944   0.18276   0.17982  -0.0536  0.9908  0.0156  -1.0261   0.0000   0.0000   0.0000  -0.4102
 -14.750  -0.1827   0.17913   0.17607  -0.0390  0.9983  0.0155  -1.2698   0.0000   0.0000   0.0000  -0.0188
 -14.500  -0.1613   0.17535   0.17228  -0.0437  0.9963  0.0156  -1.2204   0.0000   0.0000   0.0000  -0.0837
 -14.250  -0.1404   0.17156   0.16849  -0.0484  0.9937  0.0159  -1.1887   0.0000   0.0000   0.0000  -0.1666
 -14.000  -0.1190   0.16784   0.16475  -0.0532  0.9916  0.0161  -1.1640   0.0000   0.0000   0.0000  -0.2826
 -12.500   0.0023   0.14504   0.14192  -0.0802  0.9741  0.0175  -1.1516   0.0000   0.0000   0.0000  39.6370
 -12.250   0.0215   0.14137   0.13826  -0.0840  0.9700  0.0177  -1.1251   0.0000   0.0000   0.0000   4.6352
 -12.000   0.0415   0.13767   0.13455  -0.0881  0.9662  0.0181  -1.1079   0.0000   0.0000   0.0000   2.6142
 -11.750   0.0583   0.13415   0.13104  -0.0913  0.9596  0.0184  -1.0988   0.0000   0.0000   0.0000   1.9860
 -11.000   0.0947   0.12476   0.12166  -0.0970  0.9197  0.0192  -1.1357   0.0000   0.0000   0.0000   1.3742
 -10.750   0.1127   0.12109   0.11798  -0.1004  0.9072  0.0193  -1.1289   0.0000   0.0000   0.0000   1.2243
 -10.500   0.1381   0.11699   0.11383  -0.1054  0.8973  0.0196  -1.0767   0.0000   0.0000   0.0000   1.0814
 -10.250   0.1699   0.11246   0.10923  -0.1126  0.8881  0.0202  -1.0406   0.0000   0.0000   0.0000   0.9684
 -10.000   0.2091   0.10738   0.10406  -0.1222  0.8785  0.0210  -1.0471   0.0000   0.0000   0.0000   0.8809
  -9.750   0.2561   0.10179   0.09833  -0.1346  0.8676  0.0213  -1.0764   0.0000   0.0000   0.0000   0.8144
  -9.500   0.3108   0.09620   0.09256  -0.1479  0.8521  0.0219  -1.0059   0.0000   0.0000   0.0000   0.7588
  -9.250   0.3517   0.09192   0.08803  -0.1576  0.8279  0.0227  -0.9880   0.0000   0.0000   0.0000   0.7277
  -9.000   0.3728   0.08919   0.08508  -0.1619  0.8037  0.0232  -1.0149   0.0000   0.0000   0.0000   0.7121
  -8.750   0.3850   0.08704   0.08278  -0.1638  0.7846  0.0234  -1.0419   0.0000   0.0000   0.0000   0.7017
  -8.500   0.3971   0.08503   0.08065  -0.1643  0.7691  0.0237  -1.0044   0.0000   0.0000   0.0000   0.6887
  -8.250   0.4074   0.08320   0.07873  -0.1649  0.7560  0.0241  -1.0132   0.0000   0.0000   0.0000   0.6781
  -8.000   0.4169   0.08140   0.07685  -0.1653  0.7447  0.0247  -1.0212   0.0000   0.0000   0.0000   0.6689
  -7.500   0.4321   0.07786   0.07318  -0.1669  0.7258  0.0255  -1.0424   0.0000   0.0000   0.0000   0.6562
  -7.250   0.4428   0.07595   0.07123  -0.1665  0.7170  0.0259  -1.0439   0.0000   0.0000   0.0000   0.6450
  -7.000   0.4519   0.07426   0.06951  -0.1666  0.7090  0.0264  -1.0525   0.0000   0.0000   0.0000   0.6365
  -6.750   0.4614   0.07252   0.06770  -0.1670  0.7022  0.0271  -1.0604   0.0000   0.0000   0.0000   0.6289
  -6.500   0.4646   0.07095   0.06615  -0.1674  0.6948  0.0278  -1.0618   0.0000   0.0000   0.0000   0.6262
  -6.250   0.4763   0.06907   0.06422  -0.1672  0.6889  0.0282  -1.0739   0.0000   0.0000   0.0000   0.6161
  -6.000   0.4834   0.06754   0.06270  -0.1667  0.6822  0.0290  -1.0819   0.0000   0.0000   0.0000   0.6089
  -5.750   0.4892   0.06597   0.06108  -0.1667  0.6769  0.0299  -1.0873   0.0000   0.0000   0.0000   0.6040
  -5.250   0.5034   0.06284   0.05795  -0.1664  0.6659  0.0308  -1.1014   0.0000   0.0000   0.0000   0.5921
  -5.000   0.5126   0.06124   0.05637  -0.1667  0.6603  0.0317  -1.1095   0.0000   0.0000   0.0000   0.5858
  -4.750   0.5245   0.05920   0.05431  -0.1705  0.6554  0.0327  -1.1137   0.0000   0.0000   0.0000   0.5849
  -4.500   0.5375   0.05745   0.05255  -0.1700  0.6505  0.0332  -1.1267   0.0000   0.0000   0.0000   0.5752
  -4.250   0.5512   0.05571   0.05081  -0.1711  0.6452  0.0343  -1.1374   0.0000   0.0000   0.0000   0.5686
  -4.000   0.5743   0.05311   0.04813  -0.1769  0.6411  0.0356  -1.1498   0.0000   0.0000   0.0000   0.5653
  -3.750   0.5881   0.05153   0.04658  -0.1769  0.6359  0.0365  -1.1630   0.0000   0.0000   0.0000   0.5573
  -3.500   0.6182   0.04857   0.04357  -0.1842  0.6315  0.0384  -1.1790   0.0000   0.0000   0.0000   0.5538
  -3.250   0.6399   0.04685   0.04180  -0.1859  0.6275  0.0400  -1.1969   0.0000   0.0000   0.0000   0.5455
  -3.000   0.6690   0.04431   0.03925  -0.1912  0.6225  0.0423  -1.2151   0.0000   0.0000   0.0000   0.5401
  -2.750   0.7085   0.04140   0.03624  -0.1989  0.6183  0.0454  -1.2392   0.0000   0.0000   0.0000   0.5342
  -1.250   1.0714   0.01919   0.01154  -0.2612  0.5924  0.0439  -1.4671   0.0000   0.0000   0.0000   0.4937
  -1.000   1.1058   0.01826   0.01036  -0.2626  0.5876  0.0433  -1.4954   0.0000   0.0000   0.0000   0.4869
  -0.750   1.1402   0.01764   0.00941  -0.2639  0.5835  0.0442  -1.5245   0.0000   0.0000   0.0000   0.4804
  -0.500   1.1723   0.01722   0.00888  -0.2647  0.5798  0.0456  -1.5531   0.0000   0.0000   0.0000   0.4743
   0.000   1.2321   0.01670   0.00828  -0.2656  0.5716  0.0522  -1.6102   0.0000   0.0000   0.0000   0.4631
   0.250   1.2631   0.01658   0.00815  -0.2663  0.5680  0.0585  -1.6398   0.0000   0.0000   0.0000   0.4579
   0.500   1.2918   0.01646   0.00809  -0.2666  0.5634  0.0683  -1.6676   0.0000   0.0000   0.0000   0.4529
   0.750   1.3259   0.01613   0.00807  -0.2681  0.5595  0.1838  -1.6995   0.0000   0.0000   0.0000   0.4483
   1.000   1.3540   0.01626   0.00825  -0.2683  0.5558  0.2663  -1.7277   0.0000   0.0000   0.0000   0.4438
   1.250   1.3801   0.01636   0.00843  -0.2680  0.5516  0.3058  -1.7547   0.0000   0.0000   0.0000   0.4394
   1.500   1.4087   0.01643   0.00856  -0.2683  0.5481  0.3623  -1.7844   0.0000   0.0000   0.0000   0.4352
   1.750   1.4387   0.01640   0.00883  -0.2690  0.5448  0.4926  -1.8150   0.0000   0.0000   0.0000   0.4312
   2.000   1.4546   0.01592   0.00907  -0.2663  0.5408  1.0000  -1.8376   0.0000   0.0000   0.0000   0.4268
   2.250   1.4824   0.01613   0.00913  -0.2663  0.5371  1.0000  -1.8694   0.0000   0.0000   0.0000   0.4230
   2.500   1.5110   0.01639   0.00924  -0.2666  0.5338  1.0000  -1.9018   0.0000   0.0000   0.0000   0.4192
   2.750   1.5352   0.01662   0.00946  -0.2659  0.5296  1.0000  -1.9305   0.0000   0.0000   0.0000   0.4156
   3.000   1.5623   0.01684   0.00959  -0.2659  0.5260  1.0000  -1.9619   0.0000   0.0000   0.0000   0.4121
   3.250   1.5914   0.01712   0.00973  -0.2663  0.5230  1.0000  -1.9951   0.0000   0.0000   0.0000   0.4087
   3.500   1.6141   0.01737   0.01002  -0.2654  0.5189  1.0000  -2.0226   0.0000   0.0000   0.0000   0.4054
   3.750   1.6402   0.01762   0.01021  -0.2652  0.5152  1.0000  -2.0533   0.0000   0.0000   0.0000   0.4021
   4.000   1.6690   0.01788   0.01035  -0.2655  0.5122  1.0000  -2.0866   0.0000   0.0000   0.0000   0.3991
   4.250   1.6909   0.01817   0.01070  -0.2645  0.5081  1.0000  -2.1135   0.0000   0.0000   0.0000   0.3959
   4.500   1.7159   0.01842   0.01092  -0.2641  0.5044  1.0000  -2.1434   0.0000   0.0000   0.0000   0.3929
   4.750   1.7440   0.01868   0.01108  -0.2643  0.5013  1.0000  -2.1764   0.0000   0.0000   0.0000   0.3901
   5.000   1.7655   0.01899   0.01146  -0.2633  0.4974  1.0000  -2.2036   0.0000   0.0000   0.0000   0.3872
   5.250   1.7895   0.01927   0.01173  -0.2627  0.4937  1.0000  -2.2366   0.0000   0.0000   0.0000   0.3844
   5.500   1.8168   0.01954   0.01193  -0.2628  0.4907  1.0000  -2.2730   0.0000   0.0000   0.0000   0.3817
   5.750   1.8385   0.01988   0.01232  -0.2619  0.4870  1.0000  -2.3038   0.0000   0.0000   0.0000   0.3790
   6.000   1.8610   0.02018   0.01266  -0.2610  0.4834  1.0000  -2.3355   0.0000   0.0000   0.0000   0.3763
   6.250   1.8873   0.02047   0.01290  -0.2610  0.4804  1.0000  -2.3710   0.0000   0.0000   0.0000   0.3738
   6.500   1.9105   0.02083   0.01329  -0.2604  0.4771  1.0000  -2.4033   0.0000   0.0000   0.0000   0.3713
   6.750   1.9305   0.02118   0.01372  -0.2591  0.4734  1.0000  -2.4336   0.0000   0.0000   0.0000   0.3688
   7.000   1.9553   0.02147   0.01398  -0.2588  0.4701  1.0000  -2.4700   0.0000   0.0000   0.0000   0.3664
   7.250   1.9791   0.02183   0.01434  -0.2583  0.4669  1.0000  -2.5054   0.0000   0.0000   0.0000   0.3640
   7.500   1.9965   0.02223   0.01484  -0.2566  0.4630  1.0000  -2.5345   0.0000   0.0000   0.0000   0.3615
   7.750   2.0200   0.02254   0.01514  -0.2561  0.4596  1.0000  -2.5699   0.0000   0.0000   0.0000   0.3592
   8.000   2.0441   0.02291   0.01551  -0.2557  0.4565  1.0000  -2.6058   0.0000   0.0000   0.0000   0.3570
   8.250   2.0582   0.02336   0.01609  -0.2534  0.4525  1.0000  -2.6317   0.0000   0.0000   0.0000   0.3545
   8.500   2.0804   0.02371   0.01646  -0.2527  0.4492  1.0000  -2.6658   0.0000   0.0000   0.0000   0.3523
   8.750   2.1065   0.02409   0.01681  -0.2528  0.4463  1.0000  -2.7037   0.0000   0.0000   0.0000   0.3503
   9.000   2.1165   0.02463   0.01751  -0.2498  0.4426  1.0000  -2.7252   0.0000   0.0000   0.0000   0.3478
   9.250   2.1351   0.02503   0.01796  -0.2484  0.4393  1.0000  -2.7558   0.0000   0.0000   0.0000   0.3456
   9.750   2.1658   0.02601   0.01907  -0.2446  0.4324  1.0000  -2.8122   0.0000   0.0000   0.0000   0.3410
  10.000   2.1817   0.02648   0.01960  -0.2428  0.4290  1.0000  -2.8602   0.0000   0.0000   0.0000   0.3388
  10.250   2.2103   0.02682   0.01990  -0.2434  0.4262  1.0000  -2.9384   0.0000   0.0000   0.0000   0.3371
  10.500   2.2123   0.02761   0.02088  -0.2391  0.4225  1.0000  -2.9779   0.0000   0.0000   0.0000   0.3345
  10.750   2.2235   0.02818   0.02153  -0.2366  0.4186  1.0000  -3.0316   0.0000   0.0000   0.0000   0.3323
  11.000   2.2409   0.02861   0.02196  -0.2352  0.4145  1.0000  -3.0953   0.0000   0.0000   0.0000   0.3303
  11.250   2.2369   0.02956   0.02306  -0.2302  0.4095  1.0000  -3.1269   0.0000   0.0000   0.0000   0.3276
  11.500   2.2537   0.02996   0.02343  -0.2287  0.4048  1.0000  -3.2047   0.0000   0.0000   0.0000   0.3256
  11.750   2.2459   0.03124   0.02491  -0.2235  0.3997  1.0000  -3.2393   0.0000   0.0000   0.0000   0.3231
  12.000   2.2617   0.03178   0.02544  -0.2221  0.3955  1.0000  -3.3214   0.0000   0.0000   0.0000   0.3211
  12.250   2.2590   0.03317   0.02701  -0.2180  0.3912  1.0000  -3.3686   0.0000   0.0000   0.0000   0.3189
  12.500   2.2671   0.03413   0.02805  -0.2157  0.3871  1.0000  -3.4372   0.0000   0.0000   0.0000   0.3169
  12.750   2.2721   0.03530   0.02930  -0.2130  0.3828  1.0000  -3.5002   0.0000   0.0000   0.0000   0.3149
  13.000   2.2708   0.03684   0.03097  -0.2097  0.3779  1.0000  -3.5538   0.0000   0.0000   0.0000   0.3128
  13.250   2.2795   0.03792   0.03209  -0.2077  0.3737  1.0000  -3.6313   0.0000   0.0000   0.0000   0.3110
  13.500   2.2725   0.04002   0.03437  -0.2042  0.3687  1.0000  -3.6743   0.0000   0.0000   0.0000   0.3090
  13.750   2.2831   0.04107   0.03543  -0.2026  0.3644  1.0000  -3.7568   0.0000   0.0000   0.0000   0.3073
  14.000   2.2711   0.04378   0.03834  -0.1991  0.3591  1.0000  -3.7887   0.0000   0.0000   0.0000   0.3055
  14.250   2.2775   0.04522   0.03981  -0.1974  0.3543  1.0000  -3.8761   0.0000   0.0000   0.0000   0.3039
  14.500   2.2644   0.04840   0.04317  -0.1944  0.3485  1.0000  -3.9176   0.0000   0.0000   0.0000   0.3024
  14.750   2.2637   0.05065   0.04550  -0.1925  0.3433  1.0000  -3.9943   0.0000   0.0000   0.0000   0.3008
  15.000   2.2554   0.05376   0.04874  -0.1904  0.3375  1.0000  -4.0491   0.0000   0.0000   0.0000   0.2995
  15.250   2.2485   0.05689   0.05199  -0.1886  0.3318  1.0000  -4.1078   0.0000   0.0000   0.0000   0.2982
  15.500   2.2468   0.05954   0.05469  -0.1872  0.3261  1.0000  -4.1823   0.0000   0.0000   0.0000   0.2970
  15.750   2.2315   0.06392   0.05924  -0.1855  0.3197  1.0000  -4.2154   0.0000   0.0000   0.0000   0.2960
  16.000   2.2245   0.06743   0.06285  -0.1843  0.3134  1.0000  -4.2798   0.0000   0.0000   0.0000   0.2950
  16.250   2.2182   0.07093   0.06641  -0.1833  0.3069  1.0000  -4.3469   0.0000   0.0000   0.0000   0.2940
  16.500   2.2018   0.07591   0.07154  -0.1823  0.2997  1.0000  -4.3800   0.0000   0.0000   0.0000   0.2934
  16.750   2.1890   0.08053   0.07628  -0.1816  0.2924  1.0000  -4.4244   0.0000   0.0000   0.0000   0.2928
  17.000   2.1775   0.08509   0.08091  -0.1811  0.2848  1.0000  -4.4723   0.0000   0.0000   0.0000   0.2922
  17.250   2.1657   0.08973   0.08563  -0.1808  0.2769  1.0000  -4.5504   0.0000   0.0000   0.0000   0.2918
  17.500   2.1522   0.09470   0.09067  -0.1807  0.2683  1.0000  -4.6243   0.0000   0.0000   0.0000   0.2914
  17.750   2.1377   0.09992   0.09596  -0.1808  0.2593  1.0000  -4.6909   0.0000   0.0000   0.0000   0.2913
  18.000   2.1226   0.10527   0.10138  -0.1811  0.2497  1.0000  -4.7571   0.0000   0.0000   0.0000   0.2912
  18.250   2.1067   0.11082   0.10700  -0.1817  0.2396  1.0000  -4.8161   0.0000   0.0000   0.0000   0.2914
  18.500   2.0914   0.11630   0.11252  -0.1825  0.2288  1.0000  -4.8760   0.0000   0.0000   0.0000   0.2916
  18.750   2.0774   0.12157   0.11780  -0.1835  0.2177  1.0000  -4.9411   0.0000   0.0000   0.0000   0.2918
  19.000   2.0634   0.12682   0.12303  -0.1846  0.2063  1.0000  -5.0042   0.0000   0.0000   0.0000   0.2922
  19.250   2.0485   0.13230   0.12853  -0.1860  0.1942  1.0000  -5.0575   0.0000   0.0000   0.0000   0.2927
  19.500   2.0347   0.13754   0.13372  -0.1875  0.1826  1.0000  -5.1164   0.0000   0.0000   0.0000   0.2933
  19.750   2.0221   0.14262   0.13878  -0.1892  0.1714  1.0000  -5.1792   0.0000   0.0000   0.0000   0.2939
  20.000   2.0107   0.14749   0.14361  -0.1909  0.1610  1.0000  -5.2477   0.0000   0.0000   0.0000   0.2945
  20.250   2.0009   0.15208   0.14816  -0.1926  0.1517  1.0000  -5.3251   0.0000   0.0000   0.0000   0.2950
  20.500   1.9927   0.15638   0.15243  -0.1944  0.1433  1.0000  -5.4120   0.0000   0.0000   0.0000   0.2955
  20.750   1.9861   0.16044   0.15646  -0.1962  0.1355  1.0000  -5.5082   0.0000   0.0000   0.0000   0.2959
  21.000   1.9805   0.16433   0.16035  -0.1980  0.1282  1.0000  -5.6106   0.0000   0.0000   0.0000   0.2963
  21.250   1.9758   0.16809   0.16411  -0.1998  0.1215  1.0000  -5.7185   0.0000   0.0000   0.0000   0.2966
  21.500   1.9717   0.17173   0.16777  -0.2016  0.1152  1.0000  -5.8300   0.0000   0.0000   0.0000   0.2970
  21.750   1.9683   0.17523   0.17130  -0.2035  0.1093  1.0000  -5.9463   0.0000   0.0000   0.0000   0.2972
  22.000   1.9654   0.17863   0.17472  -0.2054  0.1038  1.0000  -6.0665   0.0000   0.0000   0.0000   0.2975
  22.250   1.9628   0.18193   0.17800  -0.2073  0.0987  1.0000  -6.1887   0.0000   0.0000   0.0000   0.2978
  22.500   1.9607   0.18517   0.18123  -0.2092  0.0938  1.0000  -6.3158   0.0000   0.0000   0.0000   0.2980
  22.750   1.9583   0.18853   0.18466  -0.2113  0.0889  1.0000  -6.4384   0.0000   0.0000   0.0000   0.2983
  23.000   1.9563   0.19175   0.18792  -0.2134  0.0843  1.0000  -6.5639   0.0000   0.0000   0.0000   0.2987
  23.250   1.9545   0.19491   0.19111  -0.2155  0.0800  1.0000  -6.6925   0.0000   0.0000   0.0000   0.2990
  23.500   1.9527   0.19806   0.19425  -0.2177  0.0759  1.0000  -6.8210   0.0000   0.0000   0.0000   0.2993
  23.750   1.9508   0.20125   0.19748  -0.2199  0.0720  1.0000  -6.9485   0.0000   0.0000   0.0000   0.2997
  24.000   1.9489   0.20444   0.20073  -0.2222  0.0681  1.0000  -7.0740   0.0000   0.0000   0.0000   0.3001
  24.250   1.9471   0.20756   0.20389  -0.2246  0.0645  1.0000  -7.2015   0.0000   0.0000   0.0000   0.3005
  24.500   1.9456   0.21061   0.20695  -0.2269  0.0612  1.0000  -7.3339   0.0000   0.0000   0.0000   0.3008
  24.750   1.9435   0.21381   0.21019  -0.2294  0.0579  1.0000  -7.4669   0.0000   0.0000   0.0000   0.3013
  25.000   1.9415   0.21697   0.21343  -0.2320  0.0547  1.0000  -7.5980   0.0000   0.0000   0.0000   0.3019


