xflr5 v6.59

 Calculated polar for: TKV2008

 1 1 Reynolds number fixed          Mach number fixed         

 xtrf =   1.000 (top)        1.000 (bottom)
 Mach =   0.000     Re =     0.320 e 6     Ncrit =   9.000

  alpha     CL        CD       CDp       Cm    Top Xtr Bot Xtr   Cpmin    Chinge    XCp    
 ------- -------- --------- --------- -------- ------- ------- -------- --------- ---------
 -25.000  -0.4673   0.26892   0.26547   0.0034  1.0000  0.0102  -1.3279   0.0000   0.0000   0.0000   0.2160
 -24.750  -0.4599   0.26674   0.26330   0.0019  1.0000  0.0102  -1.3231   0.0000   0.0000   0.0000   0.2127
 -24.500  -0.4526   0.26449   0.26106   0.0003  1.0000  0.0103  -1.3251   0.0000   0.0000   0.0000   0.2094
 -23.500  -0.4231   0.25563   0.25222  -0.0056  1.0000  0.0104  -1.3446   0.0000   0.0000   0.0000   0.1950
 -23.250  -0.4159   0.25350   0.25010  -0.0070  1.0000  0.0105  -1.3246   0.0000   0.0000   0.0000   0.1915
 -23.000  -0.4086   0.25138   0.24799  -0.0083  1.0000  0.0105  -1.3107   0.0000   0.0000   0.0000   0.1879
 -22.750  -0.4012   0.24924   0.24586  -0.0096  1.0000  0.0106  -1.3002   0.0000   0.0000   0.0000   0.1841
 -22.500  -0.3939   0.24713   0.24376  -0.0110  1.0000  0.0107  -1.2917   0.0000   0.0000   0.0000   0.1802
 -22.250  -0.3865   0.24498   0.24162  -0.0123  1.0000  0.0109  -1.2844   0.0000   0.0000   0.0000   0.1762
 -22.000  -0.3791   0.24282   0.23947  -0.0135  1.0000  0.0110  -1.2777   0.0000   0.0000   0.0000   0.1720
 -21.750  -0.3717   0.24063   0.23729  -0.0148  1.0000  0.0111  -1.2714   0.0000   0.0000   0.0000   0.1678
 -21.500  -0.3643   0.23844   0.23511  -0.0160  1.0000  0.0112  -1.2652   0.0000   0.0000   0.0000   0.1634
 -21.250  -0.3570   0.23626   0.23294  -0.0172  1.0000  0.0114  -1.2591   0.0000   0.0000   0.0000   0.1589
 -19.000  -0.2926   0.21598   0.21278  -0.0268  1.0000  0.0120  -1.3034   0.0000   0.0000   0.0000   0.1127
 -18.750  -0.2858   0.21378   0.21060  -0.0275  1.0000  0.0121  -1.2774   0.0000   0.0000   0.0000   0.1076
 -18.500  -0.2791   0.21163   0.20847  -0.0283  1.0000  0.0122  -1.2589   0.0000   0.0000   0.0000   0.1022
 -18.250  -0.2724   0.20947   0.20633  -0.0291  1.0000  0.0123  -1.2445   0.0000   0.0000   0.0000   0.0966
 -18.000  -0.2658   0.20734   0.20421  -0.0298  1.0000  0.0124  -1.2328   0.0000   0.0000   0.0000   0.0909
 -17.750  -0.2593   0.20519   0.20208  -0.0305  1.0000  0.0126  -1.2226   0.0000   0.0000   0.0000   0.0851
 -17.500  -0.2530   0.20304   0.19995  -0.0311  1.0000  0.0127  -1.2131   0.0000   0.0000   0.0000   0.0793
 -17.250  -0.2468   0.20089   0.19783  -0.0317  1.0000  0.0129  -1.2046   0.0000   0.0000   0.0000   0.0734
 -17.000  -0.2408   0.19874   0.19570  -0.0322  1.0000  0.0131  -1.2041   0.0000   0.0000   0.0000   0.0676
 -16.750  -0.2349   0.19659   0.19358  -0.0327  1.0000  0.0133  -1.2083   0.0000   0.0000   0.0000   0.0620
 -16.500  -0.2293   0.19449   0.19150  -0.0331  1.0000  0.0134  -1.2147   0.0000   0.0000   0.0000   0.0564
 -15.000  -0.1802   0.17980   0.17694  -0.0405  0.9976  0.0138  -1.2487   0.0000   0.0000   0.0000  -0.0324
 -14.750  -0.1594   0.17615   0.17328  -0.0452  0.9957  0.0140  -1.2149   0.0000   0.0000   0.0000  -0.0986
 -14.500  -0.1391   0.17246   0.16958  -0.0498  0.9934  0.0142  -1.1906   0.0000   0.0000   0.0000  -0.1826
 -14.250  -0.1181   0.16878   0.16590  -0.0546  0.9915  0.0144  -1.1709   0.0000   0.0000   0.0000  -0.3001
 -14.000  -0.0982   0.16502   0.16213  -0.0590  0.9890  0.0147  -1.1549   0.0000   0.0000   0.0000  -0.4573
 -13.750  -0.0781   0.16126   0.15837  -0.0635  0.9866  0.0150  -1.1420   0.0000   0.0000   0.0000  -0.6971
 -13.500  -0.0571   0.15746   0.15456  -0.0683  0.9851  0.0153  -1.1454   0.0000   0.0000   0.0000  -1.1293
 -12.750  -0.0008   0.14621   0.14330  -0.0806  0.9759  0.0156  -1.1686   0.0000   0.0000   0.0000  -120.3677
 -12.500   0.0197   0.14252   0.13960  -0.0848  0.9733  0.0158  -1.1370   0.0000   0.0000   0.0000   5.0861
 -12.250   0.0368   0.13901   0.13610  -0.0881  0.9684  0.0160  -1.1193   0.0000   0.0000   0.0000   2.9201
 -11.250   0.0873   0.12649   0.12361  -0.0958  0.9240  0.0171  -1.1140   0.0000   0.0000   0.0000   1.4582
 -11.000   0.1044   0.12289   0.11998  -0.0994  0.9110  0.0173  -1.1467   0.0000   0.0000   0.0000   1.2935
 -10.750   0.1289   0.11863   0.11569  -0.1047  0.9005  0.0174  -1.1346   0.0000   0.0000   0.0000   1.1363
 -10.500   0.1619   0.11395   0.11094  -0.1120  0.8911  0.0177  -1.0727   0.0000   0.0000   0.0000   1.0015
 -10.250   0.2033   0.10872   0.10561  -0.1221  0.8810  0.0182  -1.0333   0.0000   0.0000   0.0000   0.8990
 -10.000   0.2541   0.10288   0.09962  -0.1352  0.8694  0.0190  -1.0423   0.0000   0.0000   0.0000   0.8224
  -9.750   0.3101   0.09690   0.09344  -0.1500  0.8514  0.0194  -1.0502   0.0000   0.0000   0.0000   0.7680
  -9.500   0.3495   0.09285   0.08911  -0.1590  0.8224  0.0198  -0.9994   0.0000   0.0000   0.0000   0.7356
  -9.250   0.3672   0.09044   0.08648  -0.1618  0.7959  0.0203  -0.9883   0.0000   0.0000   0.0000   0.7195
  -9.000   0.3787   0.08842   0.08430  -0.1630  0.7762  0.0207  -0.9911   0.0000   0.0000   0.0000   0.7078
  -8.250   0.4050   0.08272   0.07833  -0.1645  0.7361  0.0214  -1.0251   0.0000   0.0000   0.0000   0.6798
  -8.000   0.4148   0.08094   0.07648  -0.1648  0.7259  0.0217  -1.0211   0.0000   0.0000   0.0000   0.6695
  -7.750   0.4236   0.07919   0.07468  -0.1650  0.7164  0.0222  -1.0296   0.0000   0.0000   0.0000   0.6605
  -7.500   0.4320   0.07741   0.07287  -0.1652  0.7078  0.0227  -1.0373   0.0000   0.0000   0.0000   0.6524
  -7.250   0.4396   0.07560   0.07101  -0.1658  0.7003  0.0232  -1.0431   0.0000   0.0000   0.0000   0.6461
  -7.000   0.4461   0.07378   0.06917  -0.1661  0.6929  0.0234  -1.0483   0.0000   0.0000   0.0000   0.6403
  -6.750   0.4564   0.07203   0.06739  -0.1659  0.6862  0.0237  -1.0588   0.0000   0.0000   0.0000   0.6304
  -6.500   0.4650   0.07038   0.06571  -0.1658  0.6798  0.0242  -1.0669   0.0000   0.0000   0.0000   0.6225
  -6.250   0.4724   0.06871   0.06403  -0.1657  0.6737  0.0248  -1.0742   0.0000   0.0000   0.0000   0.6158
  -6.000   0.4748   0.06710   0.06242  -0.1657  0.6680  0.0255  -1.0760   0.0000   0.0000   0.0000   0.6132
  -5.750   0.4829   0.06542   0.06072  -0.1651  0.6626  0.0258  -1.0853   0.0000   0.0000   0.0000   0.6051
  -5.500   0.4889   0.06405   0.05936  -0.1642  0.6570  0.0264  -1.0930   0.0000   0.0000   0.0000   0.5982
  -5.250   0.4979   0.06241   0.05768  -0.1648  0.6524  0.0273  -1.1005   0.0000   0.0000   0.0000   0.5925
  -5.000   0.5052   0.06046   0.05577  -0.1668  0.6470  0.0278  -1.1061   0.0000   0.0000   0.0000   0.5908
  -4.750   0.5180   0.05880   0.05406  -0.1665  0.6423  0.0283  -1.1163   0.0000   0.0000   0.0000   0.5813
  -4.500   0.5305   0.05707   0.05234  -0.1675  0.6374  0.0291  -1.1262   0.0000   0.0000   0.0000   0.5747
  -4.250   0.5493   0.05435   0.04961  -0.1736  0.6326  0.0302  -1.1474   0.0000   0.0000   0.0000   0.5741
  -3.750   0.5817   0.05086   0.04610  -0.1752  0.6238  0.0319  -1.1616   0.0000   0.0000   0.0000   0.5576
  -3.500   0.6083   0.04806   0.04326  -0.1810  0.6195  0.0331  -1.1770   0.0000   0.0000   0.0000   0.5532
  -3.250   0.6342   0.04598   0.04111  -0.1846  0.6156  0.0346  -1.1956   0.0000   0.0000   0.0000   0.5460
  -3.000   0.6653   0.04318   0.03830  -0.1905  0.6108  0.0361  -1.2145   0.0000   0.0000   0.0000   0.5406
  -2.750   0.7055   0.04018   0.03520  -0.1984  0.6067  0.0389  -1.2390   0.0000   0.0000   0.0000   0.5347
  -1.250   1.0753   0.01763   0.01001  -0.2615  0.5813  0.0381  -1.4719   0.0000   0.0000   0.0000   0.4930
  -1.000   1.1084   0.01686   0.00904  -0.2626  0.5769  0.0378  -1.5000   0.0000   0.0000   0.0000   0.4863
  -0.750   1.1398   0.01641   0.00847  -0.2634  0.5728  0.0397  -1.5278   0.0000   0.0000   0.0000   0.4800
  -0.500   1.1729   0.01606   0.00788  -0.2644  0.5694  0.0410  -1.5569   0.0000   0.0000   0.0000   0.4738
  -0.250   1.2013   0.01579   0.00766  -0.2646  0.5651  0.0439  -1.5843   0.0000   0.0000   0.0000   0.4682
   0.250   1.2630   0.01547   0.00727  -0.2659  0.5577  0.0524  -1.6438   0.0000   0.0000   0.0000   0.4575
   0.500   1.2911   0.01536   0.00722  -0.2660  0.5532  0.0602  -1.6713   0.0000   0.0000   0.0000   0.4525
   0.750   1.3219   0.01520   0.00714  -0.2667  0.5492  0.0915  -1.7011   0.0000   0.0000   0.0000   0.4478
   1.000   1.3536   0.01515   0.00734  -0.2678  0.5461  0.2475  -1.7320   0.0000   0.0000   0.0000   0.4434
   1.250   1.3793   0.01523   0.00751  -0.2674  0.5420  0.2845  -1.7585   0.0000   0.0000   0.0000   0.4390
   1.500   1.4067   0.01532   0.00764  -0.2675  0.5382  0.3277  -1.7873   0.0000   0.0000   0.0000   0.4348
   1.750   1.4362   0.01535   0.00780  -0.2680  0.5350  0.4045  -1.8179   0.0000   0.0000   0.0000   0.4308
   2.000   1.4624   0.01511   0.00824  -0.2679  0.5310  0.7308  -1.8480   0.0000   0.0000   0.0000   0.4269
   2.250   1.4811   0.01493   0.00824  -0.2658  0.5273  1.0000  -1.8729   0.0000   0.0000   0.0000   0.4227
   2.500   1.5093   0.01515   0.00832  -0.2659  0.5241  1.0000  -1.9052   0.0000   0.0000   0.0000   0.4189
   2.750   1.5349   0.01538   0.00850  -0.2655  0.5203  1.0000  -1.9352   0.0000   0.0000   0.0000   0.4153
   3.000   1.5607   0.01559   0.00866  -0.2652  0.5165  1.0000  -1.9656   0.0000   0.0000   0.0000   0.4118
   3.250   1.5880   0.01582   0.00879  -0.2652  0.5133  1.0000  -1.9975   0.0000   0.0000   0.0000   0.4084
   3.500   1.6136   0.01607   0.00901  -0.2649  0.5098  1.0000  -2.0278   0.0000   0.0000   0.0000   0.4051
   3.750   1.6381   0.01629   0.00922  -0.2644  0.5059  1.0000  -2.0572   0.0000   0.0000   0.0000   0.4018
   4.000   1.6646   0.01653   0.00937  -0.2642  0.5026  1.0000  -2.0886   0.0000   0.0000   0.0000   0.3987
   4.250   1.6900   0.01679   0.00961  -0.2639  0.4991  1.0000  -2.1189   0.0000   0.0000   0.0000   0.3956
   4.500   1.7132   0.01702   0.00986  -0.2631  0.4952  1.0000  -2.1474   0.0000   0.0000   0.0000   0.3926
   4.750   1.7388   0.01726   0.01004  -0.2629  0.4918  1.0000  -2.1782   0.0000   0.0000   0.0000   0.3897
   5.000   1.7643   0.01755   0.01029  -0.2626  0.4886  1.0000  -2.2088   0.0000   0.0000   0.0000   0.3868
   5.250   1.7864   0.01781   0.01060  -0.2617  0.4848  1.0000  -2.2396   0.0000   0.0000   0.0000   0.3840
   5.500   1.8110   0.01807   0.01083  -0.2612  0.4814  1.0000  -2.2734   0.0000   0.0000   0.0000   0.3812
   5.750   1.8372   0.01836   0.01107  -0.2611  0.4785  1.0000  -2.3089   0.0000   0.0000   0.0000   0.3786
   6.000   1.8575   0.01866   0.01144  -0.2599  0.4747  1.0000  -2.3386   0.0000   0.0000   0.0000   0.3759
   6.250   1.8810   0.01894   0.01173  -0.2593  0.4714  1.0000  -2.3715   0.0000   0.0000   0.0000   0.3733
   6.500   1.9075   0.01924   0.01197  -0.2593  0.4685  1.0000  -2.4075   0.0000   0.0000   0.0000   0.3709
   6.750   1.9266   0.01958   0.01239  -0.2579  0.4648  1.0000  -2.4367   0.0000   0.0000   0.0000   0.3683
   7.000   1.9479   0.01988   0.01272  -0.2568  0.4612  1.0000  -2.4698   0.0000   0.0000   0.0000   0.3658
   7.250   1.9731   0.02019   0.01298  -0.2566  0.4582  1.0000  -2.5069   0.0000   0.0000   0.0000   0.3635
   7.500   1.9912   0.02056   0.01344  -0.2550  0.4545  1.0000  -2.5368   0.0000   0.0000   0.0000   0.3610
   7.750   2.0099   0.02089   0.01382  -0.2536  0.4508  1.0000  -2.5676   0.0000   0.0000   0.0000   0.3586
   8.000   2.0336   0.02121   0.01411  -0.2531  0.4477  1.0000  -2.6035   0.0000   0.0000   0.0000   0.3563
   8.250   2.0495   0.02162   0.01460  -0.2511  0.4442  1.0000  -2.6313   0.0000   0.0000   0.0000   0.3539
   8.500   2.0660   0.02201   0.01506  -0.2493  0.4408  1.0000  -2.6598   0.0000   0.0000   0.0000   0.3515
   8.750   2.0881   0.02237   0.01541  -0.2486  0.4378  1.0000  -2.6941   0.0000   0.0000   0.0000   0.3493
   9.000   2.1064   0.02281   0.01591  -0.2472  0.4347  1.0000  -2.7243   0.0000   0.0000   0.0000   0.3471
   9.250   2.1188   0.02329   0.01649  -0.2446  0.4310  1.0000  -2.7486   0.0000   0.0000   0.0000   0.3447
   9.500   2.1381   0.02369   0.01690  -0.2434  0.4277  1.0000  -2.7803   0.0000   0.0000   0.0000   0.3425
   9.750   2.1564   0.02417   0.01742  -0.2421  0.4245  1.0000  -2.8105   0.0000   0.0000   0.0000   0.3404
  10.000   2.1666   0.02476   0.01814  -0.2393  0.4209  1.0000  -2.8464   0.0000   0.0000   0.0000   0.3380
  10.250   2.1847   0.02524   0.01865  -0.2380  0.4178  1.0000  -2.9065   0.0000   0.0000   0.0000   0.3359
  10.500   2.2026   0.02575   0.01919  -0.2367  0.4144  1.0000  -2.9696   0.0000   0.0000   0.0000   0.3339
  10.750   2.2068   0.02651   0.02008  -0.2330  0.4100  1.0000  -3.0128   0.0000   0.0000   0.0000   0.3314
  11.000   2.2229   0.02698   0.02053  -0.2314  0.4056  1.0000  -3.0744   0.0000   0.0000   0.0000   0.3294
  11.250   2.2213   0.02800   0.02171  -0.2270  0.4005  1.0000  -3.1094   0.0000   0.0000   0.0000   0.3269
  11.500   2.2319   0.02868   0.02241  -0.2247  0.3958  1.0000  -3.1718   0.0000   0.0000   0.0000   0.3248
  11.750   2.2338   0.02979   0.02366  -0.2211  0.3911  1.0000  -3.2228   0.0000   0.0000   0.0000   0.3225
  12.000   2.2426   0.03070   0.02463  -0.2188  0.3870  1.0000  -3.2902   0.0000   0.0000   0.0000   0.3204
  12.250   2.2522   0.03165   0.02565  -0.2166  0.3831  1.0000  -3.3612   0.0000   0.0000   0.0000   0.3185
  12.500   2.2538   0.03299   0.02712  -0.2135  0.3785  1.0000  -3.4167   0.0000   0.0000   0.0000   0.3164
  12.750   2.2642   0.03396   0.02811  -0.2116  0.3742  1.0000  -3.4904   0.0000   0.0000   0.0000   0.3145
  13.000   2.2611   0.03573   0.03005  -0.2083  0.3694  1.0000  -3.5389   0.0000   0.0000   0.0000   0.3125
  13.250   2.2702   0.03687   0.03120  -0.2064  0.3652  1.0000  -3.6170   0.0000   0.0000   0.0000   0.3107
  13.500   2.2664   0.03892   0.03343  -0.2034  0.3603  1.0000  -3.6668   0.0000   0.0000   0.0000   0.3089
  13.750   2.2716   0.04042   0.03497  -0.2015  0.3556  1.0000  -3.7370   0.0000   0.0000   0.0000   0.3072
  14.000   2.2664   0.04284   0.03754  -0.1988  0.3502  1.0000  -3.7838   0.0000   0.0000   0.0000   0.3055
  14.250   2.2703   0.04460   0.03933  -0.1970  0.3452  1.0000  -3.8623   0.0000   0.0000   0.0000   0.3039
  14.500   2.2620   0.04759   0.04250  -0.1946  0.3395  1.0000  -3.9165   0.0000   0.0000   0.0000   0.3024
  14.750   2.2629   0.04981   0.04477  -0.1929  0.3343  1.0000  -3.9978   0.0000   0.0000   0.0000   0.3010
  15.000   2.2553   0.05302   0.04813  -0.1909  0.3284  1.0000  -4.0543   0.0000   0.0000   0.0000   0.2997
  15.250   2.2512   0.05599   0.05119  -0.1894  0.3227  1.0000  -4.1211   0.0000   0.0000   0.0000   0.2984
  15.500   2.2469   0.05904   0.05431  -0.1879  0.3168  1.0000  -4.1879   0.0000   0.0000   0.0000   0.2972
  15.750   2.2369   0.06294   0.05835  -0.1865  0.3103  1.0000  -4.2409   0.0000   0.0000   0.0000   0.2962
  16.000   2.2300   0.06653   0.06203  -0.1854  0.3040  1.0000  -4.3061   0.0000   0.0000   0.0000   0.2952
  16.250   2.2231   0.07020   0.06575  -0.1843  0.2975  1.0000  -4.3715   0.0000   0.0000   0.0000   0.2942
  16.500   2.2102   0.07482   0.07051  -0.1835  0.2900  1.0000  -4.4161   0.0000   0.0000   0.0000   0.2936
  16.750   2.1983   0.07940   0.07519  -0.1828  0.2824  1.0000  -4.4639   0.0000   0.0000   0.0000   0.2929
  17.000   2.1856   0.08416   0.08004  -0.1822  0.2745  1.0000  -4.5174   0.0000   0.0000   0.0000   0.2924
  17.250   2.1722   0.08912   0.08507  -0.1819  0.2661  1.0000  -4.5936   0.0000   0.0000   0.0000   0.2920
  17.500   2.1581   0.09425   0.09027  -0.1818  0.2574  1.0000  -4.6649   0.0000   0.0000   0.0000   0.2917
  17.750   2.1436   0.09950   0.09557  -0.1818  0.2481  1.0000  -4.7370   0.0000   0.0000   0.0000   0.2915
  18.000   2.1280   0.10497   0.10110  -0.1821  0.2381  1.0000  -4.8018   0.0000   0.0000   0.0000   0.2915
  18.250   2.1122   0.11050   0.10666  -0.1827  0.2274  1.0000  -4.8627   0.0000   0.0000   0.0000   0.2916
  18.500   2.0961   0.11607   0.11223  -0.1834  0.2164  1.0000  -4.9197   0.0000   0.0000   0.0000   0.2918
  18.750   2.0800   0.12171   0.11789  -0.1844  0.2048  1.0000  -4.9729   0.0000   0.0000   0.0000   0.2921
  19.000   2.0638   0.12738   0.12355  -0.1856  0.1927  1.0000  -5.0221   0.0000   0.0000   0.0000   0.2926
  19.250   2.0482   0.13292   0.12907  -0.1870  0.1808  1.0000  -5.0723   0.0000   0.0000   0.0000   0.2932
  19.500   2.0336   0.13835   0.13448  -0.1886  0.1694  1.0000  -5.1253   0.0000   0.0000   0.0000   0.2939
  19.750   2.0201   0.14358   0.13966  -0.1903  0.1592  1.0000  -5.1827   0.0000   0.0000   0.0000   0.2945
  20.000   2.0087   0.14846   0.14450  -0.1920  0.1500  1.0000  -5.2511   0.0000   0.0000   0.0000   0.2951
  20.250   1.9996   0.15296   0.14900  -0.1937  0.1414  1.0000  -5.3331   0.0000   0.0000   0.0000   0.2956
  20.500   1.9919   0.15722   0.15325  -0.1955  0.1337  1.0000  -5.4234   0.0000   0.0000   0.0000   0.2961
  20.750   1.9856   0.16128   0.15731  -0.1973  0.1265  1.0000  -5.5213   0.0000   0.0000   0.0000   0.2965
  21.000   1.9797   0.16523   0.16125  -0.1991  0.1200  1.0000  -5.6222   0.0000   0.0000   0.0000   0.2969
  21.250   1.9749   0.16903   0.16506  -0.2009  0.1138  1.0000  -5.7298   0.0000   0.0000   0.0000   0.2973
  21.500   1.9712   0.17265   0.16871  -0.2028  0.1078  1.0000  -5.8444   0.0000   0.0000   0.0000   0.2976
  21.750   1.9679   0.17617   0.17225  -0.2047  0.1022  1.0000  -5.9621   0.0000   0.0000   0.0000   0.2979
  22.000   1.9647   0.17965   0.17576  -0.2066  0.0970  1.0000  -6.0803   0.0000   0.0000   0.0000   0.2982
  22.250   1.9618   0.18305   0.17917  -0.2086  0.0921  1.0000  -6.2006   0.0000   0.0000   0.0000   0.2985
  22.500   1.9589   0.18647   0.18260  -0.2106  0.0874  1.0000  -6.3207   0.0000   0.0000   0.0000   0.2989
  22.750   1.9563   0.18986   0.18602  -0.2127  0.0828  1.0000  -6.4431   0.0000   0.0000   0.0000   0.2992
  23.000   1.9543   0.19311   0.18932  -0.2148  0.0782  1.0000  -6.5696   0.0000   0.0000   0.0000   0.2995
  23.250   1.9522   0.19635   0.19259  -0.2170  0.0740  1.0000  -6.6960   0.0000   0.0000   0.0000   0.2999
  23.500   1.9498   0.19963   0.19588  -0.2193  0.0702  1.0000  -6.8194   0.0000   0.0000   0.0000   0.3003
  23.750   1.9475   0.20288   0.19913  -0.2216  0.0665  1.0000  -6.9439   0.0000   0.0000   0.0000   0.3007
  24.000   1.9459   0.20605   0.20237  -0.2239  0.0627  1.0000  -7.0728   0.0000   0.0000   0.0000   0.3011
  24.250   1.9442   0.20915   0.20553  -0.2262  0.0593  1.0000  -7.2014   0.0000   0.0000   0.0000   0.3015
  24.500   1.9426   0.21226   0.20867  -0.2286  0.0561  1.0000  -7.3387   0.0000   0.0000   0.0000   0.3019
  24.750   1.9404   0.21541   0.21181  -0.2311  0.0533  1.0000  -7.4719   0.0000   0.0000   0.0000   0.3024
  25.000   1.9391   0.21847   0.21496  -0.2335  0.0503  1.0000  -7.6109   0.0000   0.0000   0.0000   0.3028


