xflr5 v6.59

 Calculated polar for: TKV2008

 1 1 Reynolds number fixed          Mach number fixed         

 xtrf =   1.000 (top)        1.000 (bottom)
 Mach =   0.000     Re =     1.500 e 6     Ncrit =   9.000

  alpha     CL        CD       CDp       Cm    Top Xtr Bot Xtr   Cpmin    Chinge    XCp    
 ------- -------- --------- --------- -------- ------- ------- -------- --------- ---------
 -17.500  -0.1365   0.18611   0.18454  -0.0683  0.9897  0.0059  -1.4286   0.0000   0.0000   0.0000  -0.3527
 -17.250  -0.1233   0.18317   0.18161  -0.0707  0.9885  0.0059  -1.3774   0.0000   0.0000   0.0000  -0.4358
 -17.000  -0.1080   0.18014   0.17857  -0.0739  0.9877  0.0060  -1.3335   0.0000   0.0000   0.0000  -0.5621
 -16.750  -0.0915   0.17700   0.17543  -0.0775  0.9870  0.0060  -1.2963   0.0000   0.0000   0.0000  -0.7464
 -16.500  -0.0742   0.17373   0.17216  -0.0814  0.9864  0.0061  -1.2646   0.0000   0.0000   0.0000  -1.0305
 -16.250  -0.0562   0.17037   0.16879  -0.0854  0.9860  0.0062  -1.2377   0.0000   0.0000   0.0000  -1.5093
 -16.000  -0.0376   0.16691   0.16533  -0.0896  0.9856  0.0063  -1.2143   0.0000   0.0000   0.0000  -2.4893
 -15.750  -0.0190   0.16339   0.16181  -0.0938  0.9852  0.0064  -1.1941   0.0000   0.0000   0.0000  -5.3979
 -15.500  -0.0096   0.16073   0.15915  -0.0949  0.9830  0.0065  -1.1829   0.0000   0.0000   0.0000  -11.0665
 -15.250   0.0056   0.15749   0.15591  -0.0980  0.9817  0.0067  -1.1695   0.0000   0.0000   0.0000  20.1878
 -15.000   0.0233   0.15398   0.15239  -0.1018  0.9808  0.0069  -1.1571   0.0000   0.0000   0.0000   5.1984
 -13.000   0.1427   0.12662   0.12497  -0.1254  0.9279  0.0074  -1.3159   0.0000   0.0000   0.0000   1.2177
 -12.750   0.2216   0.11818   0.11625  -0.1478  0.8987  0.0075  -1.1851   0.0000   0.0000   0.0000   0.9785
 -12.500   0.2549   0.11453   0.11199  -0.1559  0.8055  0.0076  -1.1323   0.0000   0.0000   0.0000   0.9157
 -12.250   0.2630   0.11266   0.10991  -0.1562  0.7688  0.0077  -1.1127   0.0000   0.0000   0.0000   0.8957
 -12.000   0.2719   0.11064   0.10776  -0.1569  0.7455  0.0078  -1.0941   0.0000   0.0000   0.0000   0.8760
 -11.750   0.2811   0.10855   0.10559  -0.1576  0.7279  0.0079  -1.0779   0.0000   0.0000   0.0000   0.8572
 -11.500   0.2904   0.10642   0.10337  -0.1583  0.7136  0.0081  -1.0657   0.0000   0.0000   0.0000   0.8396
  -8.250   0.4109   0.07923   0.07580  -0.1667  0.6116  0.0096  -1.1190   0.0000   0.0000   0.0000   0.6788
  -8.000   0.4198   0.07734   0.07389  -0.1670  0.6064  0.0098  -1.1151   0.0000   0.0000   0.0000   0.6699
  -7.750   0.4285   0.07538   0.07193  -0.1673  0.6019  0.0101  -1.1253   0.0000   0.0000   0.0000   0.6615
  -7.500   0.4346   0.07299   0.06954  -0.1678  0.5976  0.0103  -1.2406   0.0000   0.0000   0.0000   0.6561
  -7.000   0.4444   0.06872   0.06527  -0.1683  0.5896  0.0104  -1.3974   0.0000   0.0000   0.0000   0.6469
  -6.250   0.4680   0.06413   0.06069  -0.1666  0.5776  0.0106  -1.2096   0.0000   0.0000   0.0000   0.6209
  -6.000   0.4723   0.06277   0.05934  -0.1654  0.5737  0.0106  -1.1805   0.0000   0.0000   0.0000   0.6142
  -5.750   0.4732   0.06155   0.05812  -0.1635  0.5699  0.0107  -1.1685   0.0000   0.0000   0.0000   0.6086
  -5.500   0.4759   0.06018   0.05677  -0.1621  0.5665  0.0109  -1.1628   0.0000   0.0000   0.0000   0.6029
  -5.250   0.4823   0.05856   0.05517  -0.1618  0.5629  0.0111  -1.1648   0.0000   0.0000   0.0000   0.5968
  -5.000   0.4868   0.05692   0.05354  -0.1611  0.5593  0.0115  -1.1867   0.0000   0.0000   0.0000   0.5915
  -3.250   0.8681   0.01178   0.00646  -0.2630  0.5350  0.0137  -3.1469   0.0000   0.0000   0.0000   0.5572
  -3.000   0.9040   0.01100   0.00550  -0.2651  0.5315  0.0140  -2.9549   0.0000   0.0000   0.0000   0.5469
  -2.750   0.9346   0.01075   0.00519  -0.2658  0.5277  0.0143  -2.7390   0.0000   0.0000   0.0000   0.5374
  -2.500   0.9650   0.01051   0.00485  -0.2664  0.5240  0.0146  -2.5587   0.0000   0.0000   0.0000   0.5285
  -2.250   0.9962   0.01023   0.00448  -0.2671  0.5206  0.0150  -2.3939   0.0000   0.0000   0.0000   0.5200
  -2.000   1.0265   0.01003   0.00418  -0.2676  0.5170  0.0154  -2.2316   0.0000   0.0000   0.0000   0.5120
  -1.750   1.0565   0.00983   0.00393  -0.2682  0.5133  0.0159  -2.0545   0.0000   0.0000   0.0000   0.5046
  -1.500   1.0855   0.00977   0.00384  -0.2684  0.5101  0.0166  -1.8678   0.0000   0.0000   0.0000   0.4975
  -1.250   1.1149   0.00966   0.00368  -0.2687  0.5066  0.0175  -1.7018   0.0000   0.0000   0.0000   0.4907
  -1.000   1.1436   0.00959   0.00359  -0.2689  0.5032  0.0183  -1.5356   0.0000   0.0000   0.0000   0.4844
  -0.750   1.1720   0.00957   0.00352  -0.2690  0.4999  0.0193  -1.5627   0.0000   0.0000   0.0000   0.4782
  -0.250   1.2291   0.00947   0.00339  -0.2693  0.4930  0.0218  -1.6174   0.0000   0.0000   0.0000   0.4669
   0.000   1.2566   0.00950   0.00338  -0.2692  0.4894  0.0235  -1.6455   0.0000   0.0000   0.0000   0.4615
   0.250   1.2848   0.00947   0.00336  -0.2693  0.4859  0.0258  -1.6743   0.0000   0.0000   0.0000   0.4564
   0.500   1.3124   0.00949   0.00336  -0.2693  0.4823  0.0288  -1.7028   0.0000   0.0000   0.0000   0.4515
   0.750   1.3394   0.00954   0.00338  -0.2691  0.4789  0.0334  -1.7308   0.0000   0.0000   0.0000   0.4468
   1.000   1.3678   0.00949   0.00341  -0.2693  0.4758  0.0610  -1.7598   0.0000   0.0000   0.0000   0.4422
   1.250   1.3961   0.00941   0.00351  -0.2696  0.4723  0.1584  -1.7890   0.0000   0.0000   0.0000   0.4380
   1.500   1.4221   0.00949   0.00361  -0.2693  0.4687  0.1934  -1.8166   0.0000   0.0000   0.0000   0.4338
   1.750   1.4486   0.00954   0.00370  -0.2690  0.4654  0.2169  -1.8448   0.0000   0.0000   0.0000   0.4297
   2.000   1.4746   0.00961   0.00379  -0.2687  0.4617  0.2366  -1.8757   0.0000   0.0000   0.0000   0.4257
   2.250   1.4996   0.00972   0.00390  -0.2682  0.4581  0.2614  -1.9060   0.0000   0.0000   0.0000   0.4219
   2.500   1.5258   0.00976   0.00401  -0.2680  0.4549  0.3003  -1.9373   0.0000   0.0000   0.0000   0.4182
   2.750   1.5521   0.00978   0.00415  -0.2678  0.4514  0.3780  -1.9687   0.0000   0.0000   0.0000   0.4146
   3.000   1.5786   0.00975   0.00439  -0.2678  0.4479  0.5746  -2.0002   0.0000   0.0000   0.0000   0.4113
   3.250   1.6044   0.00973   0.00460  -0.2675  0.4448  0.7159  -2.0315   0.0000   0.0000   0.0000   0.4079
   3.500   1.6267   0.00964   0.00479  -0.2664  0.4415  0.8872  -2.0600   0.0000   0.0000   0.0000   0.4045
   4.000   1.6761   0.00986   0.00503  -0.2653  0.4352  1.0000  -2.1209   0.0000   0.0000   0.0000   0.3981
   4.250   1.7011   0.00999   0.00515  -0.2649  0.4321  1.0000  -2.1516   0.0000   0.0000   0.0000   0.3950
   4.500   1.7252   0.01016   0.00529  -0.2643  0.4289  1.0000  -2.1818   0.0000   0.0000   0.0000   0.3920
   4.750   1.7485   0.01036   0.00546  -0.2635  0.4255  1.0000  -2.2112   0.0000   0.0000   0.0000   0.3890
   5.000   1.7732   0.01049   0.00559  -0.2630  0.4222  1.0000  -2.2419   0.0000   0.0000   0.0000   0.3862
   5.250   1.7967   0.01067   0.00575  -0.2623  0.4185  1.0000  -2.2716   0.0000   0.0000   0.0000   0.3833
   5.500   1.8194   0.01089   0.00595  -0.2614  0.4150  1.0000  -2.3039   0.0000   0.0000   0.0000   0.3806
   5.750   1.8435   0.01104   0.00610  -0.2609  0.4120  1.0000  -2.3379   0.0000   0.0000   0.0000   0.3779
   6.000   1.8665   0.01123   0.00629  -0.2601  0.4088  1.0000  -2.3711   0.0000   0.0000   0.0000   0.3752
   6.250   1.8880   0.01149   0.00652  -0.2591  0.4055  1.0000  -2.4030   0.0000   0.0000   0.0000   0.3726
   6.500   1.9115   0.01165   0.00670  -0.2584  0.4026  1.0000  -2.4367   0.0000   0.0000   0.0000   0.3701
   6.750   1.9343   0.01185   0.00691  -0.2576  0.3993  1.0000  -2.4707   0.0000   0.0000   0.0000   0.3676
   7.000   1.9556   0.01211   0.00715  -0.2566  0.3960  1.0000  -2.5045   0.0000   0.0000   0.0000   0.3651
   7.250   1.9777   0.01233   0.00739  -0.2557  0.3931  1.0000  -2.5391   0.0000   0.0000   0.0000   0.3626
   7.500   1.9997   0.01255   0.00762  -0.2549  0.3901  1.0000  -2.5737   0.0000   0.0000   0.0000   0.3603
   7.750   2.0206   0.01282   0.00789  -0.2538  0.3870  1.0000  -2.6073   0.0000   0.0000   0.0000   0.3579
   8.000   2.0410   0.01311   0.00818  -0.2527  0.3840  1.0000  -2.6405   0.0000   0.0000   0.0000   0.3556
   8.250   2.0625   0.01334   0.00844  -0.2518  0.3802  1.0000  -2.6748   0.0000   0.0000   0.0000   0.3533
   8.500   2.0813   0.01371   0.00879  -0.2503  0.3755  1.0000  -2.7065   0.0000   0.0000   0.0000   0.3510
   8.750   2.1021   0.01398   0.00908  -0.2493  0.3710  1.0000  -2.7403   0.0000   0.0000   0.0000   0.3488
   9.000   2.1209   0.01433   0.00944  -0.2480  0.3668  1.0000  -2.7721   0.0000   0.0000   0.0000   0.3465
   9.250   2.1397   0.01469   0.00981  -0.2467  0.3631  1.0000  -2.8039   0.0000   0.0000   0.0000   0.3443
   9.500   2.1588   0.01504   0.01017  -0.2454  0.3589  1.0000  -2.8360   0.0000   0.0000   0.0000   0.3422
   9.750   2.1750   0.01552   0.01065  -0.2437  0.3545  1.0000  -2.8652   0.0000   0.0000   0.0000   0.3400
  10.000   2.1940   0.01588   0.01103  -0.2425  0.3496  1.0000  -2.9052   0.0000   0.0000   0.0000   0.3379
  10.250   2.2092   0.01642   0.01157  -0.2406  0.3443  1.0000  -2.9644   0.0000   0.0000   0.0000   0.3357
  10.500   2.2269   0.01684   0.01202  -0.2392  0.3398  1.0000  -3.0277   0.0000   0.0000   0.0000   0.3337
  11.000   2.2579   0.01792   0.01314  -0.2358  0.3306  1.0000  -3.1487   0.0000   0.0000   0.0000   0.3296
  11.250   2.2704   0.01863   0.01385  -0.2337  0.3250  1.0000  -3.2091   0.0000   0.0000   0.0000   0.3275
  11.500   2.2843   0.01928   0.01452  -0.2319  0.3191  1.0000  -3.2855   0.0000   0.0000   0.0000   0.3254
  11.750   2.2966   0.02004   0.01529  -0.2298  0.3141  1.0000  -3.3619   0.0000   0.0000   0.0000   0.3234
  12.000   2.3090   0.02080   0.01608  -0.2279  0.3089  1.0000  -3.4391   0.0000   0.0000   0.0000   0.3214
  12.250   2.3199   0.02168   0.01698  -0.2258  0.3039  1.0000  -3.5139   0.0000   0.0000   0.0000   0.3195
  12.500   2.3290   0.02270   0.01801  -0.2235  0.2984  1.0000  -3.5889   0.0000   0.0000   0.0000   0.3175
  12.750   2.3390   0.02369   0.01904  -0.2214  0.2927  1.0000  -3.6694   0.0000   0.0000   0.0000   0.3156
  13.000   2.3454   0.02497   0.02033  -0.2190  0.2865  1.0000  -3.7429   0.0000   0.0000   0.0000   0.3137
  13.250   2.3508   0.02638   0.02175  -0.2165  0.2795  1.0000  -3.8144   0.0000   0.0000   0.0000   0.3118
  13.500   2.3556   0.02789   0.02329  -0.2142  0.2718  1.0000  -3.8867   0.0000   0.0000   0.0000   0.3100
  13.750   2.3572   0.02973   0.02513  -0.2116  0.2636  1.0000  -3.9709   0.0000   0.0000   0.0000   0.3082
  14.000   2.3560   0.03190   0.02731  -0.2090  0.2545  1.0000  -4.0474   0.0000   0.0000   0.0000   0.3064
  14.250   2.3520   0.03444   0.02984  -0.2063  0.2448  1.0000  -4.1183   0.0000   0.0000   0.0000   0.3048
  14.500   2.3445   0.03743   0.03282  -0.2036  0.2339  1.0000  -4.1842   0.0000   0.0000   0.0000   0.3032
  14.750   2.3342   0.04086   0.03625  -0.2010  0.2226  1.0000  -4.2414   0.0000   0.0000   0.0000   0.3018
  15.000   2.3212   0.04475   0.04013  -0.1984  0.2111  1.0000  -4.2900   0.0000   0.0000   0.0000   0.3004
  15.250   2.3052   0.04914   0.04452  -0.1961  0.1993  1.0000  -4.3290   0.0000   0.0000   0.0000   0.2993
  15.500   2.2871   0.05397   0.04935  -0.1939  0.1876  1.0000  -4.3609   0.0000   0.0000   0.0000   0.2983
  15.750   2.2651   0.05947   0.05485  -0.1920  0.1750  1.0000  -4.3795   0.0000   0.0000   0.0000   0.2975
  16.000   2.2436   0.06512   0.06051  -0.1904  0.1637  1.0000  -4.3991   0.0000   0.0000   0.0000   0.2968
  16.250   2.2228   0.07088   0.06628  -0.1891  0.1534  1.0000  -4.4198   0.0000   0.0000   0.0000   0.2963
  16.500   2.2022   0.07679   0.07221  -0.1881  0.1441  1.0000  -4.4403   0.0000   0.0000   0.0000   0.2959
  16.750   2.1834   0.08258   0.07802  -0.1874  0.1358  1.0000  -4.4657   0.0000   0.0000   0.0000   0.2955
  17.250   2.1500   0.09389   0.08938  -0.1867  0.1200  1.0000  -4.5329   0.0000   0.0000   0.0000   0.2950
  17.500   2.1355   0.09934   0.09485  -0.1867  0.1133  1.0000  -4.6070   0.0000   0.0000   0.0000   0.2948
  18.000   2.1130   0.10933   0.10491  -0.1872  0.1012  1.0000  -4.7865   0.0000   0.0000   0.0000   0.2944
  18.250   2.1049   0.11387   0.10948  -0.1876  0.0962  1.0000  -4.8925   0.0000   0.0000   0.0000   0.2942
  18.500   2.0972   0.11834   0.11398  -0.1882  0.0914  1.0000  -4.9996   0.0000   0.0000   0.0000   0.2940
  18.750   2.0896   0.12277   0.11844  -0.1888  0.0866  1.0000  -5.1067   0.0000   0.0000   0.0000   0.2939
  19.000   2.0822   0.12717   0.12286  -0.1896  0.0820  1.0000  -5.2139   0.0000   0.0000   0.0000   0.2938
  19.250   2.0769   0.13121   0.12693  -0.1905  0.0770  1.0000  -5.3332   0.0000   0.0000   0.0000   0.2936
  19.500   2.0708   0.13537   0.13111  -0.1915  0.0727  1.0000  -5.4470   0.0000   0.0000   0.0000   0.2936
  19.750   2.0656   0.13936   0.13513  -0.1926  0.0685  1.0000  -5.5666   0.0000   0.0000   0.0000   0.2935
  20.000   2.0601   0.14338   0.13917  -0.1937  0.0641  1.0000  -5.6832   0.0000   0.0000   0.0000   0.2935
  20.250   2.0554   0.14726   0.14307  -0.1950  0.0598  1.0000  -5.8044   0.0000   0.0000   0.0000   0.2936
  20.500   2.0512   0.15103   0.14685  -0.1963  0.0559  1.0000  -5.9293   0.0000   0.0000   0.0000   0.2936
  20.750   2.0470   0.15477   0.15061  -0.1977  0.0525  1.0000  -6.0543   0.0000   0.0000   0.0000   0.2936
  21.000   2.0432   0.15844   0.15430  -0.1991  0.0494  1.0000  -6.1816   0.0000   0.0000   0.0000   0.2937
  21.250   2.0416   0.16171   0.15760  -0.2004  0.0461  1.0000  -6.3251   0.0000   0.0000   0.0000   0.2936
  21.500   2.0390   0.16514   0.16106  -0.2019  0.0433  1.0000  -6.4620   0.0000   0.0000   0.0000   0.2936
  21.750   2.0368   0.16850   0.16445  -0.2035  0.0408  1.0000  -6.6013   0.0000   0.0000   0.0000   0.2936
  22.000   2.0351   0.17173   0.16771  -0.2050  0.0384  1.0000  -6.7456   0.0000   0.0000   0.0000   0.2936
  22.500   2.0314   0.17819   0.17422  -0.2084  0.0338  1.0000  -7.0501   0.0000   0.0000   0.0000   0.2937
  22.750   2.0303   0.18127   0.17733  -0.2100  0.0316  1.0000  -7.2090   0.0000   0.0000   0.0000   0.2937
  23.000   2.0280   0.18451   0.18060  -0.2119  0.0294  1.0000  -7.3590   0.0000   0.0000   0.0000   0.2938
  23.250   2.0264   0.18764   0.18375  -0.2137  0.0273  1.0000  -7.5144   0.0000   0.0000   0.0000   0.2939
  23.500   2.0244   0.19080   0.18694  -0.2156  0.0251  1.0000  -7.6671   0.0000   0.0000   0.0000   0.2941
  23.750   2.0223   0.19397   0.19013  -0.2176  0.0230  1.0000  -7.8190   0.0000   0.0000   0.0000   0.2943
  24.000   2.0205   0.19705   0.19323  -0.2196  0.0212  1.0000  -7.9744   0.0000   0.0000   0.0000   0.2944
  24.250   2.0191   0.20004   0.19627  -0.2216  0.0195  1.0000  -8.1335   0.0000   0.0000   0.0000   0.2946
  24.500   2.0180   0.20300   0.19925  -0.2236  0.0179  1.0000  -8.2958   0.0000   0.0000   0.0000   0.2947
  24.750   2.0160   0.20606   0.20234  -0.2258  0.0164  1.0000  -8.4500   0.0000   0.0000   0.0000   0.2950
  25.000   2.0143   0.20908   0.20540  -0.2280  0.0151  1.0000  -8.6061   0.0000   0.0000   0.0000   0.2952


