xflr5 v6.59

 Calculated polar for: TKV2008

 1 1 Reynolds number fixed          Mach number fixed         

 xtrf =   1.000 (top)        1.000 (bottom)
 Mach =   0.000     Re =     0.525 e 6     Ncrit =   9.000

  alpha     CL        CD       CDp       Cm    Top Xtr Bot Xtr   Cpmin    Chinge    XCp    
 ------- -------- --------- --------- -------- ------- ------- -------- --------- ---------
 -25.000  -0.4724   0.26843   0.26575   0.0052  1.0000  0.0073  -1.4143   0.0000   0.0000   0.0000   0.2200
 -24.750  -0.4653   0.26640   0.26373   0.0038  1.0000  0.0074  -1.3847   0.0000   0.0000   0.0000   0.2171
 -24.500  -0.4582   0.26438   0.26171   0.0023  1.0000  0.0074  -1.3646   0.0000   0.0000   0.0000   0.2141
 -24.250  -0.4509   0.26230   0.25964   0.0008  1.0000  0.0075  -1.3484   0.0000   0.0000   0.0000   0.2109
 -24.000  -0.4436   0.26022   0.25757  -0.0007  1.0000  0.0076  -1.3344   0.0000   0.0000   0.0000   0.2076
 -23.750  -0.4362   0.25811   0.25546  -0.0021  1.0000  0.0077  -1.3218   0.0000   0.0000   0.0000   0.2043
 -23.500  -0.4288   0.25598   0.25334  -0.0036  1.0000  0.0078  -1.3102   0.0000   0.0000   0.0000   0.2008
 -23.250  -0.4214   0.25383   0.25119  -0.0050  1.0000  0.0079  -1.2999   0.0000   0.0000   0.0000   0.1973
 -23.000  -0.4140   0.25165   0.24902  -0.0064  1.0000  0.0080  -1.2976   0.0000   0.0000   0.0000   0.1937
 -22.750  -0.4066   0.24948   0.24686  -0.0077  1.0000  0.0082  -1.2958   0.0000   0.0000   0.0000   0.1900
 -20.000  -0.3264   0.22446   0.22192  -0.0211  1.0000  0.0088  -1.3812   0.0000   0.0000   0.0000   0.1417
 -19.750  -0.3194   0.22223   0.21970  -0.0220  1.0000  0.0088  -1.3454   0.0000   0.0000   0.0000   0.1375
 -19.500  -0.3125   0.22009   0.21758  -0.0229  1.0000  0.0089  -1.3198   0.0000   0.0000   0.0000   0.1330
 -19.250  -0.3055   0.21796   0.21546  -0.0238  1.0000  0.0090  -1.3011   0.0000   0.0000   0.0000   0.1281
 -19.000  -0.2986   0.21580   0.21332  -0.0246  1.0000  0.0090  -1.2866   0.0000   0.0000   0.0000   0.1231
 -18.750  -0.2918   0.21366   0.21119  -0.0255  1.0000  0.0091  -1.2747   0.0000   0.0000   0.0000   0.1180
 -18.500  -0.2850   0.21150   0.20904  -0.0263  1.0000  0.0092  -1.2648   0.0000   0.0000   0.0000   0.1128
 -18.250  -0.2784   0.20933   0.20689  -0.0271  1.0000  0.0093  -1.2563   0.0000   0.0000   0.0000   0.1075
 -18.000  -0.2718   0.20715   0.20473  -0.0278  1.0000  0.0095  -1.2488   0.0000   0.0000   0.0000   0.1022
 -17.750  -0.2654   0.20498   0.20257  -0.0285  1.0000  0.0096  -1.2421   0.0000   0.0000   0.0000   0.0969
 -15.500  -0.1524   0.17837   0.17601  -0.0514  0.9933  0.0104  -1.3131   0.0000   0.0000   0.0000  -0.1612
 -15.250  -0.1330   0.17484   0.17247  -0.0556  0.9920  0.0105  -1.2604   0.0000   0.0000   0.0000  -0.2529
 -15.000  -0.1129   0.17134   0.16897  -0.0601  0.9909  0.0106  -1.2230   0.0000   0.0000   0.0000  -0.3825
 -14.750  -0.0961   0.16790   0.16553  -0.0636  0.9886  0.0107  -1.1975   0.0000   0.0000   0.0000  -0.5291
 -14.500  -0.0776   0.16440   0.16202  -0.0677  0.9869  0.0109  -1.1760   0.0000   0.0000   0.0000  -0.7668
 -14.250  -0.0581   0.16080   0.15841  -0.0720  0.9857  0.0111  -1.1573   0.0000   0.0000   0.0000  -1.1833
 -14.000  -0.0401   0.15724   0.15485  -0.0759  0.9839  0.0113  -1.1425   0.0000   0.0000   0.0000  -1.9229
 -13.750  -0.0228   0.15370   0.15132  -0.0795  0.9814  0.0115  -1.1306   0.0000   0.0000   0.0000  -3.7215
 -12.250   0.1079   0.13251   0.13020  -0.0997  0.9194  0.0124  -1.0342   0.0000   0.0000   0.0000   1.2622
 -11.750   0.0863   0.12804   0.12568  -0.0984  0.9258  0.0124  -1.1367   0.0000   0.0000   0.0000   1.5083
 -10.500   0.3142   0.09940   0.09633  -0.1573  0.8446  0.0139  -1.0607   0.0000   0.0000   0.0000   0.7880
 -10.250   0.3353   0.09681   0.09342  -0.1611  0.8019  0.0141  -1.0266   0.0000   0.0000   0.0000   0.7653
 -10.000   0.3441   0.09501   0.09143  -0.1614  0.7748  0.0143  -1.0176   0.0000   0.0000   0.0000   0.7523
  -9.750   0.3519   0.09320   0.08950  -0.1615  0.7549  0.0146  -1.0159   0.0000   0.0000   0.0000   0.7407
  -9.500   0.3597   0.09134   0.08754  -0.1617  0.7394  0.0149  -1.0196   0.0000   0.0000   0.0000   0.7296
  -9.250   0.3675   0.08941   0.08553  -0.1619  0.7262  0.0152  -1.0408   0.0000   0.0000   0.0000   0.7194
  -8.750   0.3814   0.08539   0.08141  -0.1629  0.7045  0.0155  -1.1519   0.0000   0.0000   0.0000   0.7035
  -8.500   0.3911   0.08354   0.07951  -0.1628  0.6950  0.0156  -1.0917   0.0000   0.0000   0.0000   0.6913
  -8.250   0.4001   0.08179   0.07771  -0.1629  0.6865  0.0158  -1.0564   0.0000   0.0000   0.0000   0.6808
  -8.000   0.4088   0.08003   0.07591  -0.1631  0.6787  0.0160  -1.0349   0.0000   0.0000   0.0000   0.6713
  -7.750   0.4175   0.07824   0.07410  -0.1633  0.6715  0.0163  -1.0291   0.0000   0.0000   0.0000   0.6623
  -6.750   0.4451   0.07073   0.06653  -0.1641  0.6472  0.0174  -1.1304   0.0000   0.0000   0.0000   0.6357
  -6.500   0.4544   0.06912   0.06489  -0.1636  0.6419  0.0175  -1.0633   0.0000   0.0000   0.0000   0.6260
  -6.250   0.4620   0.06755   0.06333  -0.1632  0.6367  0.0178  -1.0716   0.0000   0.0000   0.0000   0.6182
  -6.000   0.4679   0.06602   0.06179  -0.1626  0.6316  0.0181  -1.0789   0.0000   0.0000   0.0000   0.6115
  -5.750   0.4721   0.06450   0.06027  -0.1617  0.6270  0.0185  -1.0846   0.0000   0.0000   0.0000   0.6056
  -5.500   0.4729   0.06300   0.05879  -0.1604  0.6220  0.0190  -1.0871   0.0000   0.0000   0.0000   0.6016
  -5.250   0.4774   0.06087   0.05665  -0.1617  0.6178  0.0193  -1.2191   0.0000   0.0000   0.0000   0.6004
  -5.000   0.4879   0.05934   0.05513  -0.1611  0.6133  0.0194  -1.1388   0.0000   0.0000   0.0000   0.5909
  -4.750   0.4983   0.05774   0.05353  -0.1614  0.6089  0.0198  -1.1100   0.0000   0.0000   0.0000   0.5836
  -4.500   0.5108   0.05595   0.05170  -0.1626  0.6051  0.0204  -1.1198   0.0000   0.0000   0.0000   0.5771
  -4.250   0.5272   0.05289   0.04867  -0.1676  0.6012  0.0213  -1.2526   0.0000   0.0000   0.0000   0.5761
  -4.000   0.5401   0.05145   0.04723  -0.1672  0.5969  0.0215  -1.1561   0.0000   0.0000   0.0000   0.5669
  -3.750   0.5589   0.04955   0.04528  -0.1695  0.5932  0.0221  -1.1532   0.0000   0.0000   0.0000   0.5597
  -3.500   0.5946   0.04524   0.04096  -0.1797  0.5892  0.0234  -1.2865   0.0000   0.0000   0.0000   0.5579
  -3.250   0.6111   0.04392   0.03962  -0.1798  0.5851  0.0237  -1.1850   0.0000   0.0000   0.0000   0.5490
  -3.000   0.6417   0.04160   0.03722  -0.1846  0.5814  0.0247  -1.2060   0.0000   0.0000   0.0000   0.5417
  -2.750   0.6873   0.03777   0.03334  -0.1945  0.5773  0.0260  -1.2317   0.0000   0.0000   0.0000   0.5362
  -2.250   0.8082   0.02954   0.02480  -0.2192  0.5695  0.0308  -1.3027   0.0000   0.0000   0.0000   0.5230
  -1.500   1.0438   0.01510   0.00828  -0.2600  0.5573  0.0282  -1.5027   0.0000   0.0000   0.0000   0.4993
  -1.250   1.0790   0.01423   0.00715  -0.2615  0.5532  0.0274  -1.4794   0.0000   0.0000   0.0000   0.4921
  -0.500   1.1712   0.01324   0.00590  -0.2634  0.5420  0.0310  -1.5630   0.0000   0.0000   0.0000   0.4732
  -0.250   1.2005   0.01307   0.00569  -0.2637  0.5381  0.0330  -1.5907   0.0000   0.0000   0.0000   0.4675
   0.000   1.2302   0.01301   0.00557  -0.2641  0.5346  0.0358  -1.6200   0.0000   0.0000   0.0000   0.4620
   0.250   1.2589   0.01289   0.00549  -0.2644  0.5307  0.0390  -1.6485   0.0000   0.0000   0.0000   0.4568
   0.500   1.2876   0.01284   0.00544  -0.2646  0.5271  0.0443  -1.6772   0.0000   0.0000   0.0000   0.4519
   0.750   1.3167   0.01285   0.00541  -0.2649  0.5238  0.0544  -1.7063   0.0000   0.0000   0.0000   0.4471
   1.000   1.3473   0.01263   0.00553  -0.2657  0.5202  0.1914  -1.7362   0.0000   0.0000   0.0000   0.4427
   1.250   1.3739   0.01269   0.00564  -0.2656  0.5165  0.2341  -1.7638   0.0000   0.0000   0.0000   0.4383
   1.500   1.4007   0.01282   0.00575  -0.2654  0.5131  0.2635  -1.7920   0.0000   0.0000   0.0000   0.4340
   1.750   1.4273   0.01290   0.00588  -0.2653  0.5094  0.2949  -1.8204   0.0000   0.0000   0.0000   0.4299
   2.000   1.4540   0.01292   0.00603  -0.2652  0.5056  0.3532  -1.8504   0.0000   0.0000   0.0000   0.4260
   2.250   1.4832   0.01281   0.00634  -0.2658  0.5023  0.5978  -1.8836   0.0000   0.0000   0.0000   0.4223
   2.500   1.5048   0.01260   0.00660  -0.2644  0.4992  0.8723  -1.9111   0.0000   0.0000   0.0000   0.4184
   3.000   1.5544   0.01282   0.00677  -0.2633  0.4921  1.0000  -1.9710   0.0000   0.0000   0.0000   0.4111
   3.250   1.5802   0.01304   0.00691  -0.2630  0.4889  1.0000  -2.0018   0.0000   0.0000   0.0000   0.4077
   3.500   1.6048   0.01320   0.00706  -0.2625  0.4851  1.0000  -2.0316   0.0000   0.0000   0.0000   0.4043
   3.750   1.6295   0.01339   0.00721  -0.2619  0.4815  1.0000  -2.0616   0.0000   0.0000   0.0000   0.4010
   4.000   1.6545   0.01363   0.00738  -0.2615  0.4783  1.0000  -2.0920   0.0000   0.0000   0.0000   0.3979
   4.250   1.6778   0.01380   0.00757  -0.2607  0.4746  1.0000  -2.1209   0.0000   0.0000   0.0000   0.3947
   4.500   1.7011   0.01400   0.00774  -0.2599  0.4712  1.0000  -2.1500   0.0000   0.0000   0.0000   0.3917
   5.000   1.7476   0.01445   0.00816  -0.2584  0.4646  1.0000  -2.2079   0.0000   0.0000   0.0000   0.3858
   5.250   1.7700   0.01467   0.00838  -0.2575  0.4612  1.0000  -2.2367   0.0000   0.0000   0.0000   0.3829
   5.500   1.7933   0.01495   0.00860  -0.2568  0.4583  1.0000  -2.2696   0.0000   0.0000   0.0000   0.3801
   5.750   1.8154   0.01519   0.00887  -0.2559  0.4550  1.0000  -2.3014   0.0000   0.0000   0.0000   0.3774
   6.000   1.8368   0.01543   0.00912  -0.2548  0.4516  1.0000  -2.3326   0.0000   0.0000   0.0000   0.3747
   6.250   1.8585   0.01571   0.00939  -0.2538  0.4485  1.0000  -2.3643   0.0000   0.0000   0.0000   0.3720
   6.500   1.8800   0.01600   0.00968  -0.2528  0.4452  1.0000  -2.3957   0.0000   0.0000   0.0000   0.3694
   6.750   1.8998   0.01626   0.00998  -0.2515  0.4415  1.0000  -2.4257   0.0000   0.0000   0.0000   0.3668
   7.000   1.9201   0.01657   0.01028  -0.2503  0.4382  1.0000  -2.4579   0.0000   0.0000   0.0000   0.3643
   7.250   1.9407   0.01690   0.01061  -0.2492  0.4349  1.0000  -2.4906   0.0000   0.0000   0.0000   0.3618
   7.500   1.9598   0.01720   0.01097  -0.2478  0.4313  1.0000  -2.5218   0.0000   0.0000   0.0000   0.3593
   7.750   1.9794   0.01755   0.01132  -0.2466  0.4281  1.0000  -2.5537   0.0000   0.0000   0.0000   0.3569
   8.000   2.0000   0.01794   0.01170  -0.2455  0.4252  1.0000  -2.5865   0.0000   0.0000   0.0000   0.3546
   8.250   2.0181   0.01829   0.01213  -0.2440  0.4219  1.0000  -2.6167   0.0000   0.0000   0.0000   0.3522
   8.500   2.0364   0.01867   0.01255  -0.2426  0.4185  1.0000  -2.6473   0.0000   0.0000   0.0000   0.3499
   9.000   2.0724   0.01954   0.01348  -0.2397  0.4121  1.0000  -2.7079   0.0000   0.0000   0.0000   0.3454
   9.250   2.0894   0.01999   0.01397  -0.2381  0.4087  1.0000  -2.7371   0.0000   0.0000   0.0000   0.3431
   9.500   2.1076   0.02049   0.01446  -0.2368  0.4058  1.0000  -2.7676   0.0000   0.0000   0.0000   0.3410
   9.750   2.1235   0.02099   0.01505  -0.2351  0.4024  1.0000  -2.7956   0.0000   0.0000   0.0000   0.3388
  10.000   2.1379   0.02154   0.01566  -0.2332  0.3985  1.0000  -2.8223   0.0000   0.0000   0.0000   0.3366
  10.250   2.1525   0.02216   0.01627  -0.2314  0.3946  1.0000  -2.8710   0.0000   0.0000   0.0000   0.3344
  10.500   2.1637   0.02282   0.01704  -0.2290  0.3898  1.0000  -2.9239   0.0000   0.0000   0.0000   0.3322
  10.750   2.1757   0.02356   0.01778  -0.2269  0.3854  1.0000  -2.9786   0.0000   0.0000   0.0000   0.3301
  11.000   2.1866   0.02433   0.01865  -0.2247  0.3806  1.0000  -3.0314   0.0000   0.0000   0.0000   0.3279
  11.250   2.1972   0.02518   0.01954  -0.2225  0.3762  1.0000  -3.0843   0.0000   0.0000   0.0000   0.3259
  11.500   2.2082   0.02606   0.02049  -0.2204  0.3720  1.0000  -3.1392   0.0000   0.0000   0.0000   0.3238
  11.750   2.2182   0.02701   0.02151  -0.2183  0.3676  1.0000  -3.2041   0.0000   0.0000   0.0000   0.3218
  12.000   2.2271   0.02809   0.02263  -0.2162  0.3633  1.0000  -3.2710   0.0000   0.0000   0.0000   0.3199
  12.250   2.2357   0.02921   0.02384  -0.2141  0.3586  1.0000  -3.3396   0.0000   0.0000   0.0000   0.3180
  12.500   2.2431   0.03049   0.02514  -0.2120  0.3546  1.0000  -3.4063   0.0000   0.0000   0.0000   0.3161
  12.750   2.2512   0.03175   0.02652  -0.2100  0.3499  1.0000  -3.4744   0.0000   0.0000   0.0000   0.3142
  13.000   2.2561   0.03330   0.02809  -0.2079  0.3453  1.0000  -3.5394   0.0000   0.0000   0.0000   0.3124
  13.250   2.2622   0.03484   0.02975  -0.2060  0.3399  1.0000  -3.6102   0.0000   0.0000   0.0000   0.3107
  13.500   2.2650   0.03671   0.03165  -0.2039  0.3350  1.0000  -3.6744   0.0000   0.0000   0.0000   0.3090
  13.750   2.2696   0.03852   0.03357  -0.2021  0.3293  1.0000  -3.7425   0.0000   0.0000   0.0000   0.3074
  14.000   2.2715   0.04062   0.03573  -0.2003  0.3243  1.0000  -3.8052   0.0000   0.0000   0.0000   0.3058
  14.250   2.2736   0.04280   0.03799  -0.1986  0.3187  1.0000  -3.8824   0.0000   0.0000   0.0000   0.3043
  14.500   2.2743   0.04518   0.04045  -0.1969  0.3134  1.0000  -3.9624   0.0000   0.0000   0.0000   0.3029
  14.750   2.2730   0.04784   0.04318  -0.1952  0.3077  1.0000  -4.0372   0.0000   0.0000   0.0000   0.3015
  15.000   2.2722   0.05055   0.04598  -0.1938  0.3018  1.0000  -4.1137   0.0000   0.0000   0.0000   0.3002
  15.250   2.2677   0.05371   0.04919  -0.1922  0.2958  1.0000  -4.1823   0.0000   0.0000   0.0000   0.2990
  15.500   2.2626   0.05706   0.05262  -0.1909  0.2890  1.0000  -4.2539   0.0000   0.0000   0.0000   0.2978
  15.750   2.2570   0.06055   0.05620  -0.1896  0.2819  1.0000  -4.3240   0.0000   0.0000   0.0000   0.2967
  16.000   2.2489   0.06444   0.06015  -0.1884  0.2746  1.0000  -4.3859   0.0000   0.0000   0.0000   0.2958
  16.250   2.2387   0.06867   0.06444  -0.1873  0.2670  1.0000  -4.4415   0.0000   0.0000   0.0000   0.2949
  16.500   2.2267   0.07324   0.06906  -0.1864  0.2590  1.0000  -4.4906   0.0000   0.0000   0.0000   0.2942
  16.750   2.2128   0.07815   0.07402  -0.1856  0.2503  1.0000  -4.5333   0.0000   0.0000   0.0000   0.2936
  17.000   2.1983   0.08326   0.07919  -0.1850  0.2407  1.0000  -4.6031   0.0000   0.0000   0.0000   0.2931
  17.250   2.1818   0.08873   0.08470  -0.1846  0.2300  1.0000  -4.6686   0.0000   0.0000   0.0000   0.2928
  17.500   2.1629   0.09462   0.09061  -0.1844  0.2190  1.0000  -4.7211   0.0000   0.0000   0.0000   0.2926
  17.750   2.1421   0.10085   0.09685  -0.1844  0.2080  1.0000  -4.7608   0.0000   0.0000   0.0000   0.2927
  18.000   2.1236   0.10683   0.10284  -0.1847  0.1958  1.0000  -4.8096   0.0000   0.0000   0.0000   0.2928
  18.250   2.1037   0.11306   0.10907  -0.1853  0.1836  1.0000  -4.8470   0.0000   0.0000   0.0000   0.2931
  18.500   2.0844   0.11921   0.11520  -0.1862  0.1719  1.0000  -4.8842   0.0000   0.0000   0.0000   0.2936
  18.750   2.0666   0.12515   0.12114  -0.1873  0.1608  1.0000  -4.9262   0.0000   0.0000   0.0000   0.2941
  19.000   2.0504   0.13086   0.12683  -0.1886  0.1510  1.0000  -4.9743   0.0000   0.0000   0.0000   0.2947
  19.250   2.0368   0.13617   0.13213  -0.1899  0.1421  1.0000  -5.0351   0.0000   0.0000   0.0000   0.2952
  19.500   2.0260   0.14103   0.13699  -0.1913  0.1341  1.0000  -5.1115   0.0000   0.0000   0.0000   0.2956
  19.750   2.0173   0.14555   0.14153  -0.1928  0.1264  1.0000  -5.1995   0.0000   0.0000   0.0000   0.2959
  20.000   2.0090   0.15000   0.14597  -0.1943  0.1196  1.0000  -5.2890   0.0000   0.0000   0.0000   0.2963
  20.500   1.9966   0.15817   0.15418  -0.1975  0.1072  1.0000  -5.4933   0.0000   0.0000   0.0000   0.2969
  20.750   1.9919   0.16199   0.15802  -0.1991  0.1015  1.0000  -5.6052   0.0000   0.0000   0.0000   0.2971
  21.000   1.9878   0.16572   0.16178  -0.2008  0.0962  1.0000  -5.7199   0.0000   0.0000   0.0000   0.2974
  21.250   1.9839   0.16938   0.16546  -0.2026  0.0910  1.0000  -5.8369   0.0000   0.0000   0.0000   0.2976
  21.500   1.9804   0.17299   0.16908  -0.2044  0.0861  1.0000  -5.9556   0.0000   0.0000   0.0000   0.2979
  21.750   1.9766   0.17660   0.17271  -0.2063  0.0815  1.0000  -6.0728   0.0000   0.0000   0.0000   0.2982
  22.250   1.9710   0.18347   0.17962  -0.2101  0.0724  1.0000  -6.3208   0.0000   0.0000   0.0000   0.2988
  22.500   1.9691   0.18672   0.18291  -0.2120  0.0682  1.0000  -6.4526   0.0000   0.0000   0.0000   0.2990
  22.750   1.9667   0.19004   0.18626  -0.2141  0.0643  1.0000  -6.5793   0.0000   0.0000   0.0000   0.2993
  23.000   1.9644   0.19336   0.18959  -0.2161  0.0605  1.0000  -6.7073   0.0000   0.0000   0.0000   0.2996
  23.250   1.9620   0.19665   0.19291  -0.2183  0.0570  1.0000  -6.8344   0.0000   0.0000   0.0000   0.3000
  23.500   1.9600   0.19987   0.19616  -0.2205  0.0538  1.0000  -6.9644   0.0000   0.0000   0.0000   0.3003
  23.750   1.9591   0.20287   0.19920  -0.2225  0.0507  1.0000  -7.1116   0.0000   0.0000   0.0000   0.3005
  24.000   1.9579   0.20591   0.20228  -0.2247  0.0479  1.0000  -7.2567   0.0000   0.0000   0.0000   0.3008
  24.250   1.9560   0.20908   0.20548  -0.2270  0.0453  1.0000  -7.3964   0.0000   0.0000   0.0000   0.3012
  24.500   1.9547   0.21211   0.20855  -0.2293  0.0428  1.0000  -7.5412   0.0000   0.0000   0.0000   0.3015
  24.750   1.9535   0.21510   0.21159  -0.2316  0.0403  1.0000  -7.6876   0.0000   0.0000   0.0000   0.3018
  25.000   1.9520   0.21816   0.21468  -0.2340  0.0380  1.0000  -7.8300   0.0000   0.0000   0.0000   0.3022


