xflr5 v6.59

 Calculated polar for: TKV2008

 1 1 Reynolds number fixed          Mach number fixed         

 xtrf =   1.000 (top)        1.000 (bottom)
 Mach =   0.000     Re =     0.460 e 6     Ncrit =   9.000

  alpha     CL        CD       CDp       Cm    Top Xtr Bot Xtr   Cpmin    Chinge    XCp    
 ------- -------- --------- --------- -------- ------- ------- -------- --------- ---------
 -22.000  -0.3829   0.24230   0.23951  -0.0123  1.0000  0.0088  -1.3704   0.0000   0.0000   0.0000   0.1759
 -21.750  -0.3757   0.24016   0.23738  -0.0135  1.0000  0.0089  -1.3424   0.0000   0.0000   0.0000   0.1721
 -21.500  -0.3685   0.23803   0.23526  -0.0146  1.0000  0.0089  -1.3210   0.0000   0.0000   0.0000   0.1681
 -21.250  -0.3612   0.23586   0.23310  -0.0158  1.0000  0.0090  -1.3037   0.0000   0.0000   0.0000   0.1639
 -21.000  -0.3539   0.23375   0.23101  -0.0170  1.0000  0.0091  -1.2887   0.0000   0.0000   0.0000   0.1596
 -20.750  -0.3466   0.23160   0.22887  -0.0181  1.0000  0.0092  -1.2753   0.0000   0.0000   0.0000   0.1551
 -20.500  -0.3393   0.22943   0.22670  -0.0192  1.0000  0.0093  -1.2627   0.0000   0.0000   0.0000   0.1505
 -20.250  -0.3321   0.22723   0.22451  -0.0203  1.0000  0.0094  -1.2556   0.0000   0.0000   0.0000   0.1458
 -20.000  -0.3249   0.22502   0.22232  -0.0213  1.0000  0.0096  -1.2532   0.0000   0.0000   0.0000   0.1410
 -19.750  -0.3178   0.22281   0.22011  -0.0223  1.0000  0.0097  -1.2518   0.0000   0.0000   0.0000   0.1360
 -19.500  -0.3107   0.22059   0.21791  -0.0233  1.0000  0.0098  -1.2513   0.0000   0.0000   0.0000   0.1310
 -17.250  -0.2517   0.20027   0.19772  -0.0306  1.0000  0.0104  -1.3364   0.0000   0.0000   0.0000   0.0813
 -17.000  -0.2457   0.19809   0.19556  -0.0309  1.0000  0.0104  -1.3024   0.0000   0.0000   0.0000   0.0768
 -16.750  -0.2400   0.19603   0.19353  -0.0312  1.0000  0.0105  -1.2780   0.0000   0.0000   0.0000   0.0721
 -16.500  -0.2345   0.19402   0.19154  -0.0316  1.0000  0.0106  -1.2610   0.0000   0.0000   0.0000   0.0674
 -16.250  -0.2291   0.19200   0.18954  -0.0319  1.0000  0.0107  -1.2492   0.0000   0.0000   0.0000   0.0626
 -16.000  -0.2091   0.18837   0.18591  -0.0366  0.9986  0.0109  -1.2308   0.0000   0.0000   0.0000   0.0225
 -15.750  -0.1894   0.18477   0.18230  -0.0412  0.9971  0.0110  -1.2173   0.0000   0.0000   0.0000  -0.0254
 -13.750  -0.0381   0.15532   0.15280  -0.0754  0.9828  0.0121  -1.2061   0.0000   0.0000   0.0000  -2.0147
 -13.500  -0.0192   0.15179   0.14927  -0.0793  0.9807  0.0122  -1.1698   0.0000   0.0000   0.0000  -4.4600
 -13.250   0.0014   0.14813   0.14560  -0.0838  0.9793  0.0124  -1.1460   0.0000   0.0000   0.0000  67.2070
 -13.000   0.0178   0.14473   0.14221  -0.0869  0.9758  0.0126  -1.1313   0.0000   0.0000   0.0000   5.7444
 -12.750   0.0375   0.14108   0.13856  -0.0911  0.9735  0.0129  -1.1203   0.0000   0.0000   0.0000   2.9676
 -12.500   0.0531   0.13767   0.13514  -0.0940  0.9692  0.0131  -1.1167   0.0000   0.0000   0.0000   2.2232
 -12.250   0.0722   0.13400   0.13147  -0.0980  0.9661  0.0134  -1.1171   0.0000   0.0000   0.0000   1.7549
 -12.000   0.0850   0.13076   0.12823  -0.1001  0.9591  0.0135  -1.1296   0.0000   0.0000   0.0000   1.5519
 -11.500   0.0930   0.12594   0.12343  -0.0992  0.9180  0.0137  -1.1973   0.0000   0.0000   0.0000   1.4249
 -11.250   0.1184   0.12147   0.11893  -0.1050  0.9059  0.0137  -1.1929   0.0000   0.0000   0.0000   1.2217
 -11.000   0.1557   0.11633   0.11371  -0.1136  0.8963  0.0139  -1.1134   0.0000   0.0000   0.0000   1.0452
 -10.750   0.2045   0.11045   0.10772  -0.1260  0.8860  0.0143  -1.0564   0.0000   0.0000   0.0000   0.9179
 -10.500   0.2646   0.10391   0.10098  -0.1420  0.8705  0.0149  -1.0137   0.0000   0.0000   0.0000   0.8284
 -10.250   0.3213   0.09791   0.09469  -0.1573  0.8403  0.0154  -1.0646   0.0000   0.0000   0.0000   0.7755
 -10.000   0.3411   0.09502   0.09151  -0.1616  0.8025  0.0155  -1.1173   0.0000   0.0000   0.0000   0.7574
  -9.750   0.3517   0.09313   0.08943  -0.1619  0.7765  0.0157  -1.0589   0.0000   0.0000   0.0000   0.7421
  -9.500   0.3603   0.09139   0.08757  -0.1620  0.7572  0.0159  -1.0295   0.0000   0.0000   0.0000   0.7298
  -9.250   0.3686   0.08962   0.08570  -0.1621  0.7418  0.0162  -1.0159   0.0000   0.0000   0.0000   0.7186
  -9.000   0.3769   0.08778   0.08378  -0.1623  0.7289  0.0165  -1.0123   0.0000   0.0000   0.0000   0.7081
  -8.750   0.3852   0.08591   0.08185  -0.1626  0.7176  0.0168  -1.0171   0.0000   0.0000   0.0000   0.6982
  -8.500   0.3931   0.08398   0.07986  -0.1630  0.7075  0.0171  -1.0417   0.0000   0.0000   0.0000   0.6894
  -8.250   0.3995   0.08204   0.07788  -0.1636  0.6987  0.0173  -1.1148   0.0000   0.0000   0.0000   0.6833
  -8.000   0.4078   0.08010   0.07589  -0.1638  0.6904  0.0174  -1.1086   0.0000   0.0000   0.0000   0.6741
  -7.750   0.4174   0.07831   0.07408  -0.1637  0.6824  0.0175  -1.0544   0.0000   0.0000   0.0000   0.6634
  -7.500   0.4265   0.07660   0.07233  -0.1638  0.6756  0.0178  -1.0364   0.0000   0.0000   0.0000   0.6541
  -7.250   0.4350   0.07487   0.07058  -0.1639  0.6687  0.0181  -1.0446   0.0000   0.0000   0.0000   0.6457
  -7.000   0.4432   0.07311   0.06880  -0.1640  0.6627  0.0185  -1.0522   0.0000   0.0000   0.0000   0.6380
  -6.750   0.4503   0.07131   0.06699  -0.1641  0.6566  0.0189  -1.0584   0.0000   0.0000   0.0000   0.6313
  -6.500   0.4517   0.06946   0.06513  -0.1645  0.6515  0.0192  -1.1426   0.0000   0.0000   0.0000   0.6303
  -6.250   0.4617   0.06770   0.06337  -0.1638  0.6458  0.0194  -1.0713   0.0000   0.0000   0.0000   0.6199
  -5.750   0.4745   0.06472   0.06038  -0.1623  0.6356  0.0200  -1.0849   0.0000   0.0000   0.0000   0.6053
  -5.500   0.4779   0.06331   0.05896  -0.1612  0.6308  0.0204  -1.0902   0.0000   0.0000   0.0000   0.5997
  -5.250   0.4841   0.06155   0.05720  -0.1615  0.6263  0.0210  -1.0952   0.0000   0.0000   0.0000   0.5952
  -5.000   0.4915   0.05944   0.05511  -0.1629  0.6215  0.0213  -1.1713   0.0000   0.0000   0.0000   0.5922
  -4.750   0.5036   0.05793   0.05356  -0.1628  0.6173  0.0217  -1.1117   0.0000   0.0000   0.0000   0.5831
  -4.500   0.5153   0.05622   0.05187  -0.1636  0.6129  0.0223  -1.1214   0.0000   0.0000   0.0000   0.5765
  -4.250   0.5340   0.05303   0.04868  -0.1701  0.6088  0.0233  -1.2545   0.0000   0.0000   0.0000   0.5766
  -4.000   0.5481   0.05161   0.04721  -0.1695  0.6050  0.0236  -1.1438   0.0000   0.0000   0.0000   0.5664
  -3.750   0.5645   0.04980   0.04542  -0.1709  0.6007  0.0241  -1.1553   0.0000   0.0000   0.0000   0.5592
  -3.000   0.6668   0.03996   0.03543  -0.1933  0.5886  0.0279  -1.2203   0.0000   0.0000   0.0000   0.5439
  -2.750   0.6890   0.03861   0.03406  -0.1944  0.5845  0.0285  -1.2329   0.0000   0.0000   0.0000   0.5355
  -2.500   0.7452   0.03469   0.02997  -0.2062  0.5807  0.0308  -1.2654   0.0000   0.0000   0.0000   0.5293
  -2.250   0.7990   0.03116   0.02635  -0.2163  0.5764  0.0337  -1.2983   0.0000   0.0000   0.0000   0.5226
  -1.250   1.0770   0.01506   0.00786  -0.2612  0.5601  0.0298  -1.4771   0.0000   0.0000   0.0000   0.4923
  -1.000   1.1107   0.01451   0.00706  -0.2624  0.5565  0.0300  -1.5063   0.0000   0.0000   0.0000   0.4856
  -0.750   1.1406   0.01413   0.00667  -0.2629  0.5525  0.0312  -1.5335   0.0000   0.0000   0.0000   0.4793
  -0.500   1.1706   0.01390   0.00636  -0.2634  0.5487  0.0333  -1.5610   0.0000   0.0000   0.0000   0.4733
  -0.250   1.2009   0.01376   0.00613  -0.2639  0.5452  0.0353  -1.5895   0.0000   0.0000   0.0000   0.4676
   0.000   1.2295   0.01359   0.00600  -0.2641  0.5410  0.0384  -1.6179   0.0000   0.0000   0.0000   0.4622
   0.250   1.2589   0.01348   0.00588  -0.2645  0.5372  0.0418  -1.6469   0.0000   0.0000   0.0000   0.4570
   0.500   1.2886   0.01347   0.00583  -0.2649  0.5339  0.0479  -1.6762   0.0000   0.0000   0.0000   0.4520
   0.750   1.3171   0.01339   0.00580  -0.2651  0.5301  0.0600  -1.7046   0.0000   0.0000   0.0000   0.4472
   1.000   1.3478   0.01319   0.00593  -0.2660  0.5265  0.2064  -1.7347   0.0000   0.0000   0.0000   0.4428
   1.250   1.3758   0.01333   0.00604  -0.2661  0.5233  0.2465  -1.7634   0.0000   0.0000   0.0000   0.4384
   1.500   1.4018   0.01339   0.00617  -0.2658  0.5194  0.2765  -1.7907   0.0000   0.0000   0.0000   0.4342
   1.750   1.4284   0.01346   0.00630  -0.2657  0.5156  0.3152  -1.8192   0.0000   0.0000   0.0000   0.4301
   2.000   1.4570   0.01352   0.00647  -0.2660  0.5123  0.3967  -1.8508   0.0000   0.0000   0.0000   0.4262
   2.250   1.4839   0.01329   0.00687  -0.2661  0.5086  0.7113  -1.8822   0.0000   0.0000   0.0000   0.4225
   2.750   1.5304   0.01329   0.00704  -0.2641  0.5019  1.0000  -1.9395   0.0000   0.0000   0.0000   0.4148
   3.000   1.5561   0.01348   0.00719  -0.2638  0.4985  1.0000  -1.9701   0.0000   0.0000   0.0000   0.4113
   3.250   1.5812   0.01365   0.00734  -0.2633  0.4947  1.0000  -2.0002   0.0000   0.0000   0.0000   0.4078
   3.500   1.6068   0.01386   0.00747  -0.2630  0.4914  1.0000  -2.0309   0.0000   0.0000   0.0000   0.4045
   3.750   1.6320   0.01408   0.00765  -0.2626  0.4880  1.0000  -2.0612   0.0000   0.0000   0.0000   0.4012
   4.000   1.6560   0.01426   0.00783  -0.2619  0.4841  1.0000  -2.0906   0.0000   0.0000   0.0000   0.3980
   4.250   1.6806   0.01448   0.00800  -0.2614  0.4808  1.0000  -2.1207   0.0000   0.0000   0.0000   0.3949
   4.500   1.7054   0.01472   0.00820  -0.2610  0.4776  1.0000  -2.1508   0.0000   0.0000   0.0000   0.3919
   4.750   1.7286   0.01492   0.00842  -0.2602  0.4739  1.0000  -2.1796   0.0000   0.0000   0.0000   0.3889
   5.000   1.7519   0.01515   0.00862  -0.2595  0.4706  1.0000  -2.2087   0.0000   0.0000   0.0000   0.3860
   5.250   1.7763   0.01543   0.00884  -0.2590  0.4675  1.0000  -2.2399   0.0000   0.0000   0.0000   0.3832
   5.500   1.7975   0.01564   0.00910  -0.2578  0.4639  1.0000  -2.2707   0.0000   0.0000   0.0000   0.3804
   5.750   1.8196   0.01588   0.00934  -0.2569  0.4607  1.0000  -2.3025   0.0000   0.0000   0.0000   0.3776
   6.000   1.8439   0.01619   0.00958  -0.2565  0.4578  1.0000  -2.3364   0.0000   0.0000   0.0000   0.3750
   6.250   1.8640   0.01644   0.00989  -0.2551  0.4544  1.0000  -2.3664   0.0000   0.0000   0.0000   0.3723
   6.500   1.8843   0.01670   0.01018  -0.2539  0.4509  1.0000  -2.3967   0.0000   0.0000   0.0000   0.3697
   6.750   1.9063   0.01701   0.01045  -0.2530  0.4477  1.0000  -2.4287   0.0000   0.0000   0.0000   0.3672
   7.000   1.9258   0.01731   0.01079  -0.2516  0.4442  1.0000  -2.4601   0.0000   0.0000   0.0000   0.3646
   7.250   1.9447   0.01761   0.01113  -0.2502  0.4406  1.0000  -2.4912   0.0000   0.0000   0.0000   0.3621
   7.500   1.9654   0.01794   0.01145  -0.2491  0.4374  1.0000  -2.5241   0.0000   0.0000   0.0000   0.3596
   7.750   1.9846   0.01829   0.01184  -0.2477  0.4341  1.0000  -2.5554   0.0000   0.0000   0.0000   0.3572
   8.000   2.0028   0.01864   0.01224  -0.2462  0.4306  1.0000  -2.5858   0.0000   0.0000   0.0000   0.3548
   8.250   2.0225   0.01902   0.01262  -0.2450  0.4276  1.0000  -2.6178   0.0000   0.0000   0.0000   0.3525
   8.500   2.0425   0.01942   0.01304  -0.2439  0.4246  1.0000  -2.6498   0.0000   0.0000   0.0000   0.3502
   8.750   2.0587   0.01984   0.01354  -0.2421  0.4211  1.0000  -2.6782   0.0000   0.0000   0.0000   0.3479
   9.000   2.0763   0.02026   0.01399  -0.2406  0.4178  1.0000  -2.7082   0.0000   0.0000   0.0000   0.3456
   9.250   2.0955   0.02072   0.01445  -0.2395  0.4147  1.0000  -2.7397   0.0000   0.0000   0.0000   0.3434
   9.500   2.1102   0.02122   0.01504  -0.2375  0.4112  1.0000  -2.7664   0.0000   0.0000   0.0000   0.3412
   9.750   2.1267   0.02171   0.01558  -0.2359  0.4080  1.0000  -2.7950   0.0000   0.0000   0.0000   0.3390
  10.000   2.1459   0.02222   0.01606  -0.2348  0.4049  1.0000  -2.8287   0.0000   0.0000   0.0000   0.3369
  10.250   2.1562   0.02285   0.01683  -0.2322  0.4007  1.0000  -2.8738   0.0000   0.0000   0.0000   0.3346
  10.500   2.1686   0.02349   0.01750  -0.2300  0.3965  1.0000  -2.9288   0.0000   0.0000   0.0000   0.3324
  10.750   2.1789   0.02423   0.01832  -0.2276  0.3918  1.0000  -2.9808   0.0000   0.0000   0.0000   0.3302
  11.000   2.1887   0.02502   0.01916  -0.2251  0.3871  1.0000  -3.0323   0.0000   0.0000   0.0000   0.3281
  11.250   2.1988   0.02587   0.02006  -0.2228  0.3825  1.0000  -3.0844   0.0000   0.0000   0.0000   0.3260
  11.500   2.2078   0.02679   0.02106  -0.2204  0.3780  1.0000  -3.1366   0.0000   0.0000   0.0000   0.3239
  11.750   2.2191   0.02770   0.02199  -0.2185  0.3742  1.0000  -3.2039   0.0000   0.0000   0.0000   0.3219
  12.000   2.2265   0.02878   0.02320  -0.2161  0.3696  1.0000  -3.2676   0.0000   0.0000   0.0000   0.3199
  12.250   2.2347   0.02992   0.02435  -0.2140  0.3653  1.0000  -3.3357   0.0000   0.0000   0.0000   0.3179
  12.500   2.2414   0.03118   0.02574  -0.2117  0.3606  1.0000  -3.4007   0.0000   0.0000   0.0000   0.3160
  12.750   2.2480   0.03251   0.02711  -0.2096  0.3563  1.0000  -3.4663   0.0000   0.0000   0.0000   0.3142
  13.000   2.2541   0.03395   0.02865  -0.2075  0.3518  1.0000  -3.5325   0.0000   0.0000   0.0000   0.3124
  13.250   2.2583   0.03558   0.03035  -0.2054  0.3468  1.0000  -3.5995   0.0000   0.0000   0.0000   0.3106
  13.500   2.2620   0.03734   0.03221  -0.2034  0.3417  1.0000  -3.6655   0.0000   0.0000   0.0000   0.3089
  13.750   2.2641   0.03931   0.03422  -0.2014  0.3365  1.0000  -3.7285   0.0000   0.0000   0.0000   0.3073
  14.000   2.2664   0.04136   0.03638  -0.1995  0.3311  1.0000  -3.7916   0.0000   0.0000   0.0000   0.3057
  14.250   2.2669   0.04363   0.03870  -0.1977  0.3260  1.0000  -3.8615   0.0000   0.0000   0.0000   0.3042
  14.500   2.2676   0.04601   0.04120  -0.1960  0.3202  1.0000  -3.9412   0.0000   0.0000   0.0000   0.3028
  14.750   2.2663   0.04864   0.04388  -0.1944  0.3149  1.0000  -4.0159   0.0000   0.0000   0.0000   0.3014
  15.000   2.2644   0.05145   0.04679  -0.1929  0.3089  1.0000  -4.0890   0.0000   0.0000   0.0000   0.3001
  15.250   2.2615   0.05443   0.04986  -0.1914  0.3030  1.0000  -4.1596   0.0000   0.0000   0.0000   0.2989
  15.500   2.2557   0.05781   0.05328  -0.1900  0.2971  1.0000  -4.2276   0.0000   0.0000   0.0000   0.2977
  15.750   2.2501   0.06131   0.05690  -0.1888  0.2900  1.0000  -4.2973   0.0000   0.0000   0.0000   0.2966
  16.000   2.2428   0.06509   0.06076  -0.1876  0.2829  1.0000  -4.3615   0.0000   0.0000   0.0000   0.2957
  16.250   2.2332   0.06924   0.06498  -0.1866  0.2756  1.0000  -4.4186   0.0000   0.0000   0.0000   0.2948
  16.500   2.2221   0.07367   0.06946  -0.1857  0.2679  1.0000  -4.4707   0.0000   0.0000   0.0000   0.2941
  16.750   2.2094   0.07841   0.07427  -0.1849  0.2597  1.0000  -4.5167   0.0000   0.0000   0.0000   0.2934
  17.000   2.1955   0.08341   0.07932  -0.1843  0.2510  1.0000  -4.5839   0.0000   0.0000   0.0000   0.2929
  17.250   2.1806   0.08864   0.08461  -0.1839  0.2415  1.0000  -4.6557   0.0000   0.0000   0.0000   0.2925
  17.500   2.1647   0.09411   0.09013  -0.1838  0.2309  1.0000  -4.7238   0.0000   0.0000   0.0000   0.2923
  17.750   2.1466   0.09993   0.09597  -0.1838  0.2199  1.0000  -4.7786   0.0000   0.0000   0.0000   0.2922
  18.000   2.1270   0.10603   0.10208  -0.1841  0.2088  1.0000  -4.8215   0.0000   0.0000   0.0000   0.2924
  18.250   2.1088   0.11197   0.10804  -0.1847  0.1968  1.0000  -4.8693   0.0000   0.0000   0.0000   0.2926
  18.500   2.0902   0.11801   0.11408  -0.1855  0.1846  1.0000  -4.9108   0.0000   0.0000   0.0000   0.2930
  18.750   2.0712   0.12414   0.12018  -0.1866  0.1731  1.0000  -4.9461   0.0000   0.0000   0.0000   0.2936
  19.000   2.0551   0.12982   0.12585  -0.1878  0.1619  1.0000  -4.9952   0.0000   0.0000   0.0000   0.2941
  19.250   2.0398   0.13535   0.13136  -0.1892  0.1520  1.0000  -5.0466   0.0000   0.0000   0.0000   0.2947
  19.500   2.0266   0.14059   0.13659  -0.1908  0.1431  1.0000  -5.1075   0.0000   0.0000   0.0000   0.2953
  19.750   2.0156   0.14546   0.14145  -0.1923  0.1352  1.0000  -5.1805   0.0000   0.0000   0.0000   0.2958
  20.000   2.0071   0.14993   0.14593  -0.1939  0.1275  1.0000  -5.2680   0.0000   0.0000   0.0000   0.2962
  20.250   1.9997   0.15422   0.15022  -0.1956  0.1206  1.0000  -5.3614   0.0000   0.0000   0.0000   0.2966
  20.500   1.9936   0.15828   0.15429  -0.1972  0.1142  1.0000  -5.4634   0.0000   0.0000   0.0000   0.2969
  20.750   1.9887   0.16214   0.15818  -0.1989  0.1080  1.0000  -5.5726   0.0000   0.0000   0.0000   0.2972
  21.000   1.9839   0.16596   0.16201  -0.2006  0.1024  1.0000  -5.6827   0.0000   0.0000   0.0000   0.2975
  21.250   1.9798   0.16966   0.16574  -0.2024  0.0971  1.0000  -5.7966   0.0000   0.0000   0.0000   0.2978
  21.500   1.9761   0.17328   0.16938  -0.2042  0.0919  1.0000  -5.9134   0.0000   0.0000   0.0000   0.2981
  21.750   1.9723   0.17691   0.17303  -0.2062  0.0870  1.0000  -6.0287   0.0000   0.0000   0.0000   0.2984
  22.000   1.9686   0.18051   0.17663  -0.2081  0.0823  1.0000  -6.1448   0.0000   0.0000   0.0000   0.2988
  22.250   1.9667   0.18378   0.17994  -0.2100  0.0775  1.0000  -6.2752   0.0000   0.0000   0.0000   0.2990
  22.500   1.9642   0.18714   0.18333  -0.2120  0.0732  1.0000  -6.4007   0.0000   0.0000   0.0000   0.2993
  22.750   1.9618   0.19047   0.18669  -0.2141  0.0691  1.0000  -6.5263   0.0000   0.0000   0.0000   0.2996
  23.000   1.9595   0.19377   0.19002  -0.2162  0.0652  1.0000  -6.6535   0.0000   0.0000   0.0000   0.2999
  23.250   1.9567   0.19715   0.19340  -0.2184  0.0616  1.0000  -6.7757   0.0000   0.0000   0.0000   0.3003
  23.500   1.9550   0.20033   0.19663  -0.2205  0.0580  1.0000  -6.9065   0.0000   0.0000   0.0000   0.3007
  23.750   1.9538   0.20338   0.19971  -0.2227  0.0546  1.0000  -7.0435   0.0000   0.0000   0.0000   0.3009
  24.000   1.9522   0.20648   0.20285  -0.2249  0.0516  1.0000  -7.1833   0.0000   0.0000   0.0000   0.3013
  24.250   1.9502   0.20970   0.20610  -0.2273  0.0489  1.0000  -7.3198   0.0000   0.0000   0.0000   0.3017
  24.500   1.9492   0.21268   0.20912  -0.2295  0.0461  1.0000  -7.4663   0.0000   0.0000   0.0000   0.3020
  24.750   1.9481   0.21565   0.21214  -0.2318  0.0436  1.0000  -7.6120   0.0000   0.0000   0.0000   0.3023
  25.000   1.9466   0.21872   0.21524  -0.2342  0.0413  1.0000  -7.7527   0.0000   0.0000   0.0000   0.3027


