xflr5 v6.59

 Calculated polar for: TKV2008

 1 1 Reynolds number fixed          Mach number fixed         

 xtrf =   1.000 (top)        1.000 (bottom)
 Mach =   0.000     Re =     0.480 e 6     Ncrit =   9.000

  alpha     CL        CD       CDp       Cm    Top Xtr Bot Xtr   Cpmin    Chinge    XCp    
 ------- -------- --------- --------- -------- ------- ------- -------- --------- ---------
 -25.000  -0.4718   0.26899   0.26618   0.0050  1.0000  0.0078  -1.3464   0.0000   0.0000   0.0000   0.2197
 -24.750  -0.4645   0.26687   0.26408   0.0034  1.0000  0.0079  -1.3338   0.0000   0.0000   0.0000   0.2166
 -24.500  -0.4572   0.26474   0.26195   0.0019  1.0000  0.0080  -1.3219   0.0000   0.0000   0.0000   0.2134
 -24.250  -0.4498   0.26259   0.25981   0.0004  1.0000  0.0081  -1.3164   0.0000   0.0000   0.0000   0.2101
 -24.000  -0.4425   0.26042   0.25764  -0.0010  1.0000  0.0082  -1.3108   0.0000   0.0000   0.0000   0.2068
 -23.750  -0.4351   0.25823   0.25546  -0.0025  1.0000  0.0084  -1.3053   0.0000   0.0000   0.0000   0.2034
 -23.500  -0.4277   0.25602   0.25326  -0.0039  1.0000  0.0085  -1.3000   0.0000   0.0000   0.0000   0.1999
 -23.250  -0.4203   0.25381   0.25105  -0.0053  1.0000  0.0086  -1.2969   0.0000   0.0000   0.0000   0.1963
 -23.000  -0.4129   0.25159   0.24884  -0.0067  1.0000  0.0087  -1.3040   0.0000   0.0000   0.0000   0.1926
 -22.750  -0.4054   0.24933   0.24657  -0.0081  1.0000  0.0087  -1.3126   0.0000   0.0000   0.0000   0.1888
 -22.500  -0.3980   0.24706   0.24431  -0.0094  1.0000  0.0087  -1.3220   0.0000   0.0000   0.0000   0.1849
 -21.250  -0.3615   0.23564   0.23294  -0.0158  1.0000  0.0088  -1.3576   0.0000   0.0000   0.0000   0.1639
 -21.000  -0.3543   0.23347   0.23078  -0.0169  1.0000  0.0089  -1.3279   0.0000   0.0000   0.0000   0.1598
 -20.750  -0.3471   0.23135   0.22867  -0.0180  1.0000  0.0089  -1.3044   0.0000   0.0000   0.0000   0.1555
 -20.500  -0.3399   0.22919   0.22652  -0.0191  1.0000  0.0090  -1.2848   0.0000   0.0000   0.0000   0.1510
 -20.250  -0.3327   0.22705   0.22440  -0.0201  1.0000  0.0091  -1.2746   0.0000   0.0000   0.0000   0.1464
 -20.000  -0.3255   0.22490   0.22225  -0.0212  1.0000  0.0092  -1.2669   0.0000   0.0000   0.0000   0.1416
 -19.750  -0.3184   0.22273   0.22009  -0.0222  1.0000  0.0093  -1.2612   0.0000   0.0000   0.0000   0.1368
 -19.500  -0.3113   0.22053   0.21791  -0.0231  1.0000  0.0095  -1.2570   0.0000   0.0000   0.0000   0.1318
 -19.250  -0.3043   0.21832   0.21571  -0.0241  1.0000  0.0096  -1.2539   0.0000   0.0000   0.0000   0.1267
 -19.000  -0.2974   0.21610   0.21350  -0.0250  1.0000  0.0097  -1.2513   0.0000   0.0000   0.0000   0.1215
 -18.750  -0.2905   0.21386   0.21128  -0.0258  1.0000  0.0098  -1.2493   0.0000   0.0000   0.0000   0.1163
 -18.500  -0.2838   0.21164   0.20907  -0.0266  1.0000  0.0100  -1.2481   0.0000   0.0000   0.0000   0.1109
 -18.250  -0.2771   0.20939   0.20684  -0.0274  1.0000  0.0101  -1.2484   0.0000   0.0000   0.0000   0.1055
 -18.000  -0.2706   0.20714   0.20460  -0.0281  1.0000  0.0102  -1.2509   0.0000   0.0000   0.0000   0.1001
 -17.750  -0.2641   0.20489   0.20236  -0.0288  1.0000  0.0102  -1.2560   0.0000   0.0000   0.0000   0.0945
 -17.500  -0.2578   0.20264   0.20013  -0.0295  1.0000  0.0103  -1.2637   0.0000   0.0000   0.0000   0.0889
 -17.250  -0.2518   0.20039   0.19790  -0.0301  1.0000  0.0103  -1.2744   0.0000   0.0000   0.0000   0.0833
 -16.500  -0.2352   0.19381   0.19138  -0.0316  1.0000  0.0104  -1.3317   0.0000   0.0000   0.0000   0.0676
 -16.250  -0.2225   0.19094   0.18851  -0.0340  0.9994  0.0105  -1.2900   0.0000   0.0000   0.0000   0.0471
 -16.000  -0.2030   0.18743   0.18501  -0.0385  0.9979  0.0106  -1.2560   0.0000   0.0000   0.0000   0.0057
 -15.750  -0.1833   0.18394   0.18151  -0.0431  0.9966  0.0107  -1.2325   0.0000   0.0000   0.0000  -0.0456
 -15.500  -0.1644   0.18035   0.17792  -0.0473  0.9948  0.0109  -1.2152   0.0000   0.0000   0.0000  -0.1055
 -15.250  -0.1451   0.17676   0.17432  -0.0517  0.9931  0.0110  -1.2004   0.0000   0.0000   0.0000  -0.1826
 -15.000  -0.1252   0.17311   0.17066  -0.0563  0.9917  0.0112  -1.1877   0.0000   0.0000   0.0000  -0.2878
 -13.500  -0.0146   0.15098   0.14850  -0.0812  0.9804  0.0120  -1.2511   0.0000   0.0000   0.0000  -6.0790
 -13.250   0.0062   0.14726   0.14477  -0.0854  0.9792  0.0121  -1.1914   0.0000   0.0000   0.0000  15.8064
 -13.000   0.0219   0.14396   0.14148  -0.0883  0.9754  0.0123  -1.1578   0.0000   0.0000   0.0000   4.7732
 -12.750   0.0420   0.14033   0.13784  -0.0925  0.9733  0.0125  -1.1333   0.0000   0.0000   0.0000   2.7136
 -12.500   0.0569   0.13706   0.13458  -0.0951  0.9687  0.0127  -1.1211   0.0000   0.0000   0.0000   2.1115
 -12.000   0.0881   0.13038   0.12790  -0.1009  0.9582  0.0131  -1.1089   0.0000   0.0000   0.0000   1.5141
 -11.750   0.0817   0.12903   0.12659  -0.0970  0.9319  0.0133  -1.1179   0.0000   0.0000   0.0000   1.5617
 -11.500   0.0978   0.12554   0.12307  -0.0999  0.9153  0.0135  -1.1245   0.0000   0.0000   0.0000   1.3747
 -11.250   0.1264   0.12076   0.11824  -0.1069  0.9041  0.0136  -1.1585   0.0000   0.0000   0.0000   1.1760
 -11.000   0.1652   0.11510   0.11250  -0.1170  0.8948  0.0137  -1.1761   0.0000   0.0000   0.0000   1.0214
 -10.750   0.2183   0.10894   0.10621  -0.1304  0.8836  0.0140  -1.0724   0.0000   0.0000   0.0000   0.8964
  -9.250   0.3677   0.08941   0.08551  -0.1622  0.7369  0.0157  -1.0511   0.0000   0.0000   0.0000   0.7198
  -9.000   0.3763   0.08764   0.08367  -0.1623  0.7243  0.0160  -1.0295   0.0000   0.0000   0.0000   0.7087
  -8.750   0.3848   0.08584   0.08179  -0.1625  0.7134  0.0162  -1.0195   0.0000   0.0000   0.0000   0.6984
  -8.500   0.3931   0.08399   0.07989  -0.1627  0.7034  0.0165  -1.0162   0.0000   0.0000   0.0000   0.6887
  -7.500   0.4243   0.07633   0.07210  -0.1640  0.6721  0.0174  -1.0929   0.0000   0.0000   0.0000   0.6567
  -7.250   0.4337   0.07464   0.07037  -0.1639  0.6658  0.0176  -1.0441   0.0000   0.0000   0.0000   0.6470
  -7.000   0.4422   0.07295   0.06868  -0.1639  0.6593  0.0179  -1.0516   0.0000   0.0000   0.0000   0.6385
  -6.750   0.4502   0.07126   0.06696  -0.1639  0.6536  0.0182  -1.0593   0.0000   0.0000   0.0000   0.6309
  -6.500   0.4573   0.06953   0.06524  -0.1637  0.6479  0.0187  -1.0659   0.0000   0.0000   0.0000   0.6239
  -6.250   0.4616   0.06773   0.06342  -0.1637  0.6429  0.0191  -1.0693   0.0000   0.0000   0.0000   0.6196
  -6.000   0.4632   0.06599   0.06169  -0.1631  0.6381  0.0193  -1.1438   0.0000   0.0000   0.0000   0.6164
  -5.750   0.4709   0.06449   0.06020  -0.1620  0.6328  0.0194  -1.0817   0.0000   0.0000   0.0000   0.6073
  -5.500   0.4763   0.06315   0.05882  -0.1611  0.6283  0.0197  -1.0891   0.0000   0.0000   0.0000   0.6005
  -5.250   0.4830   0.06159   0.05730  -0.1607  0.6232  0.0202  -1.0962   0.0000   0.0000   0.0000   0.5943
  -5.000   0.4917   0.05982   0.05551  -0.1613  0.6187  0.0207  -1.1035   0.0000   0.0000   0.0000   0.5887
  -4.750   0.5018   0.05738   0.05308  -0.1641  0.6147  0.0213  -1.1989   0.0000   0.0000   0.0000   0.5868
  -4.500   0.5133   0.05590   0.05161  -0.1636  0.6102  0.0216  -1.1194   0.0000   0.0000   0.0000   0.5777
  -4.250   0.5275   0.05413   0.04981  -0.1650  0.6063  0.0223  -1.1306   0.0000   0.0000   0.0000   0.5709
  -4.000   0.5523   0.05051   0.04617  -0.1731  0.6025  0.0233  -1.2741   0.0000   0.0000   0.0000   0.5706
  -3.750   0.5649   0.04917   0.04484  -0.1721  0.5981  0.0236  -1.1628   0.0000   0.0000   0.0000   0.5610
  -3.500   0.5853   0.04731   0.04293  -0.1743  0.5943  0.0242  -1.1697   0.0000   0.0000   0.0000   0.5535
  -3.250   0.6252   0.04320   0.03877  -0.1846  0.5903  0.0256  -1.2182   0.0000   0.0000   0.0000   0.5501
  -3.000   0.6460   0.04167   0.03723  -0.1859  0.5861  0.0262  -1.2073   0.0000   0.0000   0.0000   0.5418
  -2.500   0.7558   0.03330   0.02862  -0.2098  0.5782  0.0305  -1.2689   0.0000   0.0000   0.0000   0.5302
  -2.250   0.8377   0.02747   0.02251  -0.2275  0.5739  0.0353  -1.3142   0.0000   0.0000   0.0000   0.5235
  -2.000   0.8743   0.02606   0.02099  -0.2313  0.5702  0.0365  -1.3439   0.0000   0.0000   0.0000   0.5158
  -1.500   1.0409   0.01575   0.00889  -0.2594  0.5616  0.0304  -1.4568   0.0000   0.0000   0.0000   0.4995
  -1.250   1.0771   0.01488   0.00776  -0.2613  0.5580  0.0292  -1.4778   0.0000   0.0000   0.0000   0.4923
  -1.000   1.1099   0.01427   0.00696  -0.2623  0.5541  0.0294  -1.5063   0.0000   0.0000   0.0000   0.4856
  -0.750   1.1410   0.01388   0.00643  -0.2629  0.5502  0.0304  -1.5342   0.0000   0.0000   0.0000   0.4792
  -0.500   1.1710   0.01374   0.00620  -0.2634  0.5468  0.0326  -1.5619   0.0000   0.0000   0.0000   0.4732
  -0.250   1.2004   0.01351   0.00601  -0.2638  0.5428  0.0345  -1.5897   0.0000   0.0000   0.0000   0.4676
   0.000   1.2294   0.01338   0.00586  -0.2640  0.5388  0.0375  -1.6183   0.0000   0.0000   0.0000   0.4621
   0.250   1.2591   0.01332   0.00574  -0.2645  0.5353  0.0410  -1.6477   0.0000   0.0000   0.0000   0.4569
   0.500   1.2880   0.01325   0.00571  -0.2648  0.5316  0.0466  -1.6763   0.0000   0.0000   0.0000   0.4520
   0.750   1.3167   0.01319   0.00567  -0.2650  0.5279  0.0579  -1.7049   0.0000   0.0000   0.0000   0.4472
   1.000   1.3478   0.01302   0.00579  -0.2659  0.5246  0.2021  -1.7354   0.0000   0.0000   0.0000   0.4428
   1.250   1.3748   0.01312   0.00592  -0.2659  0.5211  0.2423  -1.7632   0.0000   0.0000   0.0000   0.4384
   1.500   1.4012   0.01318   0.00603  -0.2656  0.5172  0.2719  -1.7909   0.0000   0.0000   0.0000   0.4341
   1.750   1.4281   0.01328   0.00615  -0.2656  0.5137  0.3084  -1.8198   0.0000   0.0000   0.0000   0.4300
   2.000   1.4557   0.01333   0.00633  -0.2657  0.5102  0.3800  -1.8505   0.0000   0.0000   0.0000   0.4261
   2.250   1.4835   0.01311   0.00670  -0.2660  0.5064  0.6756  -1.8825   0.0000   0.0000   0.0000   0.4224
   2.750   1.5302   0.01310   0.00692  -0.2641  0.5000  1.0000  -1.9401   0.0000   0.0000   0.0000   0.4148
   3.000   1.5553   0.01325   0.00706  -0.2636  0.4963  1.0000  -1.9701   0.0000   0.0000   0.0000   0.4112
   3.250   1.5806   0.01344   0.00719  -0.2632  0.4928  1.0000  -2.0005   0.0000   0.0000   0.0000   0.4078
   3.500   1.6069   0.01368   0.00733  -0.2630  0.4896  1.0000  -2.0318   0.0000   0.0000   0.0000   0.4044
   3.750   1.6308   0.01384   0.00751  -0.2623  0.4858  1.0000  -2.0610   0.0000   0.0000   0.0000   0.4011
   4.000   1.6551   0.01403   0.00767  -0.2617  0.4821  1.0000  -2.0908   0.0000   0.0000   0.0000   0.3980
   4.250   1.6808   0.01430   0.00785  -0.2614  0.4790  1.0000  -2.1218   0.0000   0.0000   0.0000   0.3949
   4.500   1.7039   0.01448   0.00806  -0.2606  0.4754  1.0000  -2.1504   0.0000   0.0000   0.0000   0.3918
   4.750   1.7271   0.01468   0.00825  -0.2598  0.4719  1.0000  -2.1793   0.0000   0.0000   0.0000   0.3888
   5.000   1.7513   0.01494   0.00845  -0.2593  0.4688  1.0000  -2.2092   0.0000   0.0000   0.0000   0.3860
   5.250   1.7735   0.01517   0.00870  -0.2583  0.4654  1.0000  -2.2381   0.0000   0.0000   0.0000   0.3831
   5.500   1.7955   0.01539   0.00893  -0.2574  0.4620  1.0000  -2.2698   0.0000   0.0000   0.0000   0.3803
   5.750   1.8184   0.01566   0.00917  -0.2566  0.4589  1.0000  -2.3024   0.0000   0.0000   0.0000   0.3776
   6.000   1.8410   0.01594   0.00944  -0.2558  0.4559  1.0000  -2.3347   0.0000   0.0000   0.0000   0.3749
   6.250   1.8615   0.01618   0.00973  -0.2546  0.4523  1.0000  -2.3651   0.0000   0.0000   0.0000   0.3722
   6.500   1.8826   0.01646   0.01000  -0.2535  0.4490  1.0000  -2.3962   0.0000   0.0000   0.0000   0.3696
   6.750   1.9044   0.01678   0.01029  -0.2526  0.4458  1.0000  -2.4280   0.0000   0.0000   0.0000   0.3671
   7.000   1.9232   0.01705   0.01063  -0.2510  0.4421  1.0000  -2.4586   0.0000   0.0000   0.0000   0.3645
   7.250   1.9429   0.01736   0.01095  -0.2498  0.4387  1.0000  -2.4906   0.0000   0.0000   0.0000   0.3620
   7.500   1.9641   0.01772   0.01128  -0.2488  0.4356  1.0000  -2.5240   0.0000   0.0000   0.0000   0.3596
   7.750   1.9820   0.01804   0.01168  -0.2472  0.4320  1.0000  -2.5540   0.0000   0.0000   0.0000   0.3571
   8.000   2.0012   0.01840   0.01206  -0.2459  0.4288  1.0000  -2.5854   0.0000   0.0000   0.0000   0.3547
   8.250   2.0228   0.01879   0.01242  -0.2450  0.4260  1.0000  -2.6192   0.0000   0.0000   0.0000   0.3525
   8.500   2.0394   0.01918   0.01290  -0.2433  0.4226  1.0000  -2.6479   0.0000   0.0000   0.0000   0.3501
   8.750   2.0568   0.01959   0.01335  -0.2417  0.4191  1.0000  -2.6776   0.0000   0.0000   0.0000   0.3478
   9.000   2.0761   0.02003   0.01378  -0.2405  0.4161  1.0000  -2.7093   0.0000   0.0000   0.0000   0.3456
   9.250   2.0923   0.02049   0.01432  -0.2388  0.4127  1.0000  -2.7375   0.0000   0.0000   0.0000   0.3433
   9.500   2.1084   0.02097   0.01486  -0.2371  0.4093  1.0000  -2.7658   0.0000   0.0000   0.0000   0.3411
   9.750   2.1263   0.02147   0.01536  -0.2357  0.4063  1.0000  -2.7960   0.0000   0.0000   0.0000   0.3389
  10.000   2.1416   0.02202   0.01598  -0.2340  0.4029  1.0000  -2.8240   0.0000   0.0000   0.0000   0.3367
  10.250   2.1541   0.02262   0.01666  -0.2317  0.3986  1.0000  -2.8716   0.0000   0.0000   0.0000   0.3345
  10.500   2.1679   0.02327   0.01730  -0.2298  0.3945  1.0000  -2.9287   0.0000   0.0000   0.0000   0.3324
  10.750   2.1769   0.02402   0.01817  -0.2272  0.3896  1.0000  -2.9786   0.0000   0.0000   0.0000   0.3301
  11.000   2.1887   0.02478   0.01893  -0.2251  0.3852  1.0000  -3.0332   0.0000   0.0000   0.0000   0.3280
  11.250   2.1975   0.02566   0.01993  -0.2226  0.3803  1.0000  -3.0831   0.0000   0.0000   0.0000   0.3259
  11.500   2.2078   0.02655   0.02086  -0.2204  0.3761  1.0000  -3.1374   0.0000   0.0000   0.0000   0.3239
  11.750   2.2179   0.02750   0.02189  -0.2183  0.3721  1.0000  -3.2022   0.0000   0.0000   0.0000   0.3219
  12.000   2.2263   0.02856   0.02302  -0.2161  0.3675  1.0000  -3.2679   0.0000   0.0000   0.0000   0.3199
  12.250   2.2344   0.02972   0.02422  -0.2139  0.3632  1.0000  -3.3357   0.0000   0.0000   0.0000   0.3179
  12.500   2.2416   0.03096   0.02556  -0.2118  0.3585  1.0000  -3.4018   0.0000   0.0000   0.0000   0.3160
  12.750   2.2488   0.03228   0.02690  -0.2097  0.3545  1.0000  -3.4686   0.0000   0.0000   0.0000   0.3142
  13.000   2.2546   0.03374   0.02849  -0.2076  0.3496  1.0000  -3.5344   0.0000   0.0000   0.0000   0.3124
  13.250   2.2590   0.03538   0.03015  -0.2055  0.3449  1.0000  -3.6020   0.0000   0.0000   0.0000   0.3106
  13.500   2.2629   0.03713   0.03204  -0.2036  0.3394  1.0000  -3.6683   0.0000   0.0000   0.0000   0.3090
  13.750   2.2653   0.03909   0.03404  -0.2015  0.3344  1.0000  -3.7317   0.0000   0.0000   0.0000   0.3073
  14.000   2.2678   0.04114   0.03619  -0.1998  0.3288  1.0000  -3.7954   0.0000   0.0000   0.0000   0.3058
  14.250   2.2690   0.04337   0.03849  -0.1980  0.3237  1.0000  -3.8680   0.0000   0.0000   0.0000   0.3043
  14.500   2.2691   0.04580   0.04101  -0.1963  0.3180  1.0000  -3.9461   0.0000   0.0000   0.0000   0.3028
  14.750   2.2689   0.04835   0.04364  -0.1947  0.3124  1.0000  -4.0238   0.0000   0.0000   0.0000   0.3014
  15.000   2.2657   0.05126   0.04661  -0.1931  0.3068  1.0000  -4.0937   0.0000   0.0000   0.0000   0.3001
  15.250   2.2636   0.05419   0.04964  -0.1917  0.3006  1.0000  -4.1665   0.0000   0.0000   0.0000   0.2989
  15.500   2.2586   0.05750   0.05302  -0.1903  0.2944  1.0000  -4.2382   0.0000   0.0000   0.0000   0.2977
  15.750   2.2510   0.06120   0.05678  -0.1890  0.2877  1.0000  -4.3019   0.0000   0.0000   0.0000   0.2967
  16.000   2.2440   0.06497   0.06064  -0.1879  0.2803  1.0000  -4.3671   0.0000   0.0000   0.0000   0.2957
  16.250   2.2350   0.06905   0.06481  -0.1869  0.2727  1.0000  -4.4262   0.0000   0.0000   0.0000   0.2949
  16.500   2.2245   0.07343   0.06925  -0.1860  0.2649  1.0000  -4.4799   0.0000   0.0000   0.0000   0.2941
  16.750   2.2118   0.07817   0.07405  -0.1852  0.2566  1.0000  -4.5264   0.0000   0.0000   0.0000   0.2934
  17.000   2.1978   0.08319   0.07912  -0.1846  0.2476  1.0000  -4.5969   0.0000   0.0000   0.0000   0.2929
  17.250   2.1820   0.08854   0.08452  -0.1842  0.2377  1.0000  -4.6653   0.0000   0.0000   0.0000   0.2926
  17.500   2.1643   0.09424   0.09025  -0.1840  0.2271  1.0000  -4.7242   0.0000   0.0000   0.0000   0.2924
  17.750   2.1446   0.10030   0.09633  -0.1840  0.2163  1.0000  -4.7697   0.0000   0.0000   0.0000   0.2924
  18.000   2.1266   0.10619   0.10224  -0.1843  0.2048  1.0000  -4.8215   0.0000   0.0000   0.0000   0.2925
  18.250   2.1072   0.11232   0.10837  -0.1849  0.1927  1.0000  -4.8623   0.0000   0.0000   0.0000   0.2928
  18.500   2.0882   0.11842   0.11447  -0.1857  0.1806  1.0000  -4.9017   0.0000   0.0000   0.0000   0.2932
  18.750   2.0703   0.12437   0.12040  -0.1868  0.1689  1.0000  -4.9436   0.0000   0.0000   0.0000   0.2937
  19.000   2.0527   0.13030   0.12630  -0.1881  0.1586  1.0000  -4.9832   0.0000   0.0000   0.0000   0.2943
  19.250   2.0387   0.13565   0.13164  -0.1895  0.1489  1.0000  -5.0421   0.0000   0.0000   0.0000   0.2948
  19.500   2.0269   0.14067   0.13666  -0.1909  0.1401  1.0000  -5.1117   0.0000   0.0000   0.0000   0.2953
  19.750   2.0170   0.14537   0.14136  -0.1924  0.1322  1.0000  -5.1922   0.0000   0.0000   0.0000   0.2958
  20.000   2.0087   0.14981   0.14581  -0.1940  0.1248  1.0000  -5.2812   0.0000   0.0000   0.0000   0.2961
  20.250   2.0012   0.15410   0.15011  -0.1956  0.1182  1.0000  -5.3748   0.0000   0.0000   0.0000   0.2965
  20.500   1.9948   0.15821   0.15423  -0.1973  0.1120  1.0000  -5.4747   0.0000   0.0000   0.0000   0.2969
  20.750   1.9892   0.16219   0.15822  -0.1990  0.1060  1.0000  -5.5792   0.0000   0.0000   0.0000   0.2972
  21.000   1.9840   0.16608   0.16212  -0.2008  0.1006  1.0000  -5.6862   0.0000   0.0000   0.0000   0.2976
  21.250   1.9805   0.16969   0.16576  -0.2025  0.0952  1.0000  -5.8049   0.0000   0.0000   0.0000   0.2978
  21.500   1.9775   0.17319   0.16929  -0.2043  0.0899  1.0000  -5.9271   0.0000   0.0000   0.0000   0.2980
  21.750   1.9742   0.17671   0.17284  -0.2061  0.0851  1.0000  -6.0470   0.0000   0.0000   0.0000   0.2983
  22.000   1.9708   0.18027   0.17641  -0.2081  0.0805  1.0000  -6.1662   0.0000   0.0000   0.0000   0.2986
  22.250   1.9678   0.18373   0.17990  -0.2101  0.0759  1.0000  -6.2879   0.0000   0.0000   0.0000   0.2989
  22.500   1.9647   0.18719   0.18337  -0.2121  0.0718  1.0000  -6.4087   0.0000   0.0000   0.0000   0.2993
  22.750   1.9629   0.19043   0.18664  -0.2141  0.0676  1.0000  -6.5399   0.0000   0.0000   0.0000   0.2996
  23.000   1.9611   0.19362   0.18986  -0.2162  0.0637  1.0000  -6.6709   0.0000   0.0000   0.0000   0.2998
  23.250   1.9591   0.19685   0.19313  -0.2183  0.0600  1.0000  -6.8006   0.0000   0.0000   0.0000   0.3001
  23.500   1.9567   0.20017   0.19647  -0.2205  0.0566  1.0000  -6.9263   0.0000   0.0000   0.0000   0.3005
  23.750   1.9544   0.20342   0.19974  -0.2228  0.0535  1.0000  -7.0550   0.0000   0.0000   0.0000   0.3010
  24.000   1.9536   0.20640   0.20276  -0.2249  0.0504  1.0000  -7.2031   0.0000   0.0000   0.0000   0.3012
  24.250   1.9526   0.20941   0.20582  -0.2271  0.0476  1.0000  -7.3495   0.0000   0.0000   0.0000   0.3015
  24.500   1.9510   0.21250   0.20894  -0.2294  0.0451  1.0000  -7.4908   0.0000   0.0000   0.0000   0.3018
  24.750   1.9491   0.21562   0.21210  -0.2318  0.0426  1.0000  -7.6290   0.0000   0.0000   0.0000   0.3023
  25.000   1.9482   0.21854   0.21507  -0.2342  0.0402  1.0000  -7.7772   0.0000   0.0000   0.0000   0.3026


