xflr5 v6.59

 Calculated polar for: TKV2008

 1 1 Reynolds number fixed          Mach number fixed         

 xtrf =   1.000 (top)        1.000 (bottom)
 Mach =   0.000     Re =     0.550 e 6     Ncrit =   9.000

  alpha     CL        CD       CDp       Cm    Top Xtr Bot Xtr   Cpmin    Chinge    XCp    
 ------- -------- --------- --------- -------- ------- ------- -------- --------- ---------
 -24.250  -0.4511   0.26196   0.25936   0.0009  1.0000  0.0073  -1.4001   0.0000   0.0000   0.0000   0.2110
 -24.000  -0.4439   0.25991   0.25732  -0.0005  1.0000  0.0074  -1.3724   0.0000   0.0000   0.0000   0.2079
 -23.750  -0.4367   0.25786   0.25527  -0.0020  1.0000  0.0075  -1.3504   0.0000   0.0000   0.0000   0.2046
 -23.500  -0.4294   0.25577   0.25318  -0.0034  1.0000  0.0075  -1.3319   0.0000   0.0000   0.0000   0.2012
 -23.250  -0.4220   0.25367   0.25109  -0.0048  1.0000  0.0076  -1.3194   0.0000   0.0000   0.0000   0.1977
 -23.000  -0.4146   0.25155   0.24898  -0.0062  1.0000  0.0077  -1.3120   0.0000   0.0000   0.0000   0.1941
 -19.250  -0.3060   0.21774   0.21530  -0.0239  1.0000  0.0088  -1.3873   0.0000   0.0000   0.0000   0.1276
 -19.000  -0.2991   0.21550   0.21308  -0.0246  1.0000  0.0088  -1.3496   0.0000   0.0000   0.0000   0.1232
 -18.750  -0.2924   0.21337   0.21095  -0.0254  1.0000  0.0089  -1.3211   0.0000   0.0000   0.0000   0.1185
 -18.500  -0.2857   0.21125   0.20885  -0.0261  1.0000  0.0090  -1.2996   0.0000   0.0000   0.0000   0.1135
 -18.250  -0.2791   0.20913   0.20674  -0.0269  1.0000  0.0090  -1.2826   0.0000   0.0000   0.0000   0.1084
 -18.000  -0.2725   0.20698   0.20461  -0.0276  1.0000  0.0091  -1.2687   0.0000   0.0000   0.0000   0.1032
 -17.750  -0.2661   0.20485   0.20249  -0.0283  1.0000  0.0092  -1.2568   0.0000   0.0000   0.0000   0.0979
 -17.500  -0.2598   0.20271   0.20037  -0.0289  1.0000  0.0093  -1.2464   0.0000   0.0000   0.0000   0.0927
 -17.250  -0.2537   0.20056   0.19825  -0.0294  1.0000  0.0095  -1.2371   0.0000   0.0000   0.0000   0.0875
 -15.000  -0.1079   0.17035   0.16801  -0.0620  0.9900  0.0104  -1.2942   0.0000   0.0000   0.0000  -0.4301
 -14.750  -0.0907   0.16690   0.16457  -0.0654  0.9879  0.0105  -1.2419   0.0000   0.0000   0.0000  -0.5960
 -14.500  -0.0720   0.16345   0.16111  -0.0695  0.9865  0.0106  -1.2033   0.0000   0.0000   0.0000  -0.8717
 -14.250  -0.0523   0.15992   0.15757  -0.0738  0.9855  0.0107  -1.1733   0.0000   0.0000   0.0000  -1.3777
 -14.000  -0.0356   0.15649   0.15415  -0.0772  0.9831  0.0109  -1.1514   0.0000   0.0000   0.0000  -2.2340
 -13.750  -0.0174   0.15295   0.15061  -0.0811  0.9811  0.0111  -1.1319   0.0000   0.0000   0.0000  -5.0373
 -13.250   0.0201   0.14566   0.14331  -0.0891  0.9774  0.0115  -1.1256   0.0000   0.0000   0.0000   5.2303
 -12.000   0.0841   0.12957   0.12724  -0.1002  0.9461  0.0121  -1.2228   0.0000   0.0000   0.0000   1.5667
 -11.750   0.0892   0.12727   0.12495  -0.0995  0.9221  0.0121  -1.1871   0.0000   0.0000   0.0000   1.4799
 -11.500   0.1169   0.12291   0.12054  -0.1056  0.9092  0.0123  -1.1390   0.0000   0.0000   0.0000   1.2419
 -11.250   0.1571   0.11746   0.11501  -0.1156  0.8993  0.0125  -1.0953   0.0000   0.0000   0.0000   1.0528
 -11.000   0.2105   0.11104   0.10846  -0.1297  0.8886  0.0130  -1.0550   0.0000   0.0000   0.0000   0.9181
 -10.750   0.2749   0.10402   0.10121  -0.1473  0.8693  0.0135  -1.0372   0.0000   0.0000   0.0000   0.8277
 -10.500   0.3209   0.09870   0.09555  -0.1604  0.8286  0.0137  -1.1653   0.0000   0.0000   0.0000   0.7868
 -10.250   0.3348   0.09653   0.09310  -0.1615  0.7910  0.0138  -1.0940   0.0000   0.0000   0.0000   0.7671
 -10.000   0.3431   0.09479   0.09121  -0.1614  0.7667  0.0139  -1.0597   0.0000   0.0000   0.0000   0.7537
  -9.750   0.3511   0.09304   0.08935  -0.1615  0.7484  0.0141  -1.0407   0.0000   0.0000   0.0000   0.7416
  -9.500   0.3592   0.09123   0.08746  -0.1616  0.7336  0.0143  -1.0307   0.0000   0.0000   0.0000   0.7301
  -9.250   0.3674   0.08939   0.08554  -0.1618  0.7208  0.0146  -1.0258   0.0000   0.0000   0.0000   0.7191
  -9.000   0.3756   0.08750   0.08359  -0.1620  0.7097  0.0150  -1.0299   0.0000   0.0000   0.0000   0.7088
  -8.750   0.3835   0.08553   0.08156  -0.1624  0.6999  0.0153  -1.0632   0.0000   0.0000   0.0000   0.6997
  -5.750   0.4703   0.06434   0.06016  -0.1614  0.6237  0.0178  -1.0834   0.0000   0.0000   0.0000   0.6064
  -5.500   0.4730   0.06298   0.05880  -0.1600  0.6190  0.0182  -1.0886   0.0000   0.0000   0.0000   0.6007
  -5.250   0.4795   0.06134   0.05716  -0.1599  0.6147  0.0187  -1.0950   0.0000   0.0000   0.0000   0.5950
  -5.000   0.4852   0.05868   0.05453  -0.1634  0.6105  0.0192  -1.3023   0.0000   0.0000   0.0000   0.5974
  -4.750   0.4966   0.05722   0.05305  -0.1621  0.6064  0.0194  -1.1893   0.0000   0.0000   0.0000   0.5862
  -4.500   0.5087   0.05566   0.05148  -0.1624  0.6024  0.0197  -1.1301   0.0000   0.0000   0.0000   0.5782
  -4.250   0.5216   0.05386   0.04970  -0.1636  0.5982  0.0203  -1.1282   0.0000   0.0000   0.0000   0.5716
  -3.750   0.5584   0.04896   0.04475  -0.1703  0.5906  0.0215  -1.1779   0.0000   0.0000   0.0000   0.5613
  -3.500   0.5777   0.04703   0.04282  -0.1725  0.5864  0.0221  -1.1663   0.0000   0.0000   0.0000   0.5542
  -3.250   0.6201   0.04256   0.03827  -0.1837  0.5827  0.0234  -1.2713   0.0000   0.0000   0.0000   0.5510
  -3.000   0.6417   0.04109   0.03678  -0.1851  0.5789  0.0238  -1.2052   0.0000   0.0000   0.0000   0.5425
  -1.750   1.0068   0.01583   0.00935  -0.2578  0.5586  0.0280  -1.5849   0.0000   0.0000   0.0000   0.5068
  -1.500   1.0438   0.01482   0.00810  -0.2599  0.5547  0.0273  -1.5175   0.0000   0.0000   0.0000   0.4993
  -1.250   1.0789   0.01399   0.00703  -0.2615  0.5507  0.0268  -1.4799   0.0000   0.0000   0.0000   0.4921
  -1.000   1.1114   0.01353   0.00636  -0.2624  0.5472  0.0273  -1.5086   0.0000   0.0000   0.0000   0.4854
  -0.750   1.1422   0.01320   0.00595  -0.2630  0.5436  0.0283  -1.5364   0.0000   0.0000   0.0000   0.4791
  -0.500   1.1713   0.01303   0.00573  -0.2633  0.5396  0.0302  -1.5635   0.0000   0.0000   0.0000   0.4731
  -0.250   1.2007   0.01289   0.00556  -0.2637  0.5359  0.0323  -1.5915   0.0000   0.0000   0.0000   0.4674
   0.000   1.2300   0.01278   0.00545  -0.2640  0.5322  0.0349  -1.6203   0.0000   0.0000   0.0000   0.4620
   0.250   1.2588   0.01270   0.00536  -0.2643  0.5284  0.0382  -1.6490   0.0000   0.0000   0.0000   0.4568
   0.500   1.2878   0.01266   0.00531  -0.2646  0.5250  0.0430  -1.6779   0.0000   0.0000   0.0000   0.4518
   0.750   1.3166   0.01265   0.00529  -0.2648  0.5217  0.0526  -1.7067   0.0000   0.0000   0.0000   0.4471
   1.000   1.3470   0.01242   0.00539  -0.2656  0.5179  0.1853  -1.7366   0.0000   0.0000   0.0000   0.4426
   1.250   1.3738   0.01251   0.00550  -0.2655  0.5144  0.2300  -1.7644   0.0000   0.0000   0.0000   0.4382
   1.500   1.4007   0.01263   0.00563  -0.2654  0.5110  0.2591  -1.7925   0.0000   0.0000   0.0000   0.4340
   1.750   1.4268   0.01269   0.00574  -0.2651  0.5071  0.2888  -1.8207   0.0000   0.0000   0.0000   0.4298
   2.000   1.4536   0.01274   0.00589  -0.2650  0.5035  0.3420  -1.8508   0.0000   0.0000   0.0000   0.4259
   2.250   1.4828   0.01268   0.00618  -0.2657  0.5003  0.5490  -1.8839   0.0000   0.0000   0.0000   0.4223
   2.500   1.5063   0.01247   0.00648  -0.2648  0.4968  0.8159  -1.9128   0.0000   0.0000   0.0000   0.4184
   3.000   1.5545   0.01265   0.00664  -0.2633  0.4902  1.0000  -1.9718   0.0000   0.0000   0.0000   0.4111
   3.250   1.5796   0.01280   0.00678  -0.2628  0.4865  1.0000  -2.0019   0.0000   0.0000   0.0000   0.4076
   3.500   1.6044   0.01297   0.00692  -0.2623  0.4829  1.0000  -2.0320   0.0000   0.0000   0.0000   0.4043
   3.750   1.6292   0.01320   0.00707  -0.2618  0.4796  1.0000  -2.0623   0.0000   0.0000   0.0000   0.4010
   4.000   1.6531   0.01338   0.00724  -0.2612  0.4760  1.0000  -2.0916   0.0000   0.0000   0.0000   0.3978
   4.250   1.6766   0.01356   0.00741  -0.2604  0.4725  1.0000  -2.1208   0.0000   0.0000   0.0000   0.3947
   4.500   1.7004   0.01379   0.00759  -0.2597  0.4693  1.0000  -2.1502   0.0000   0.0000   0.0000   0.3916
   4.750   1.7237   0.01401   0.00780  -0.2590  0.4660  1.0000  -2.1792   0.0000   0.0000   0.0000   0.3886
   5.000   1.7463   0.01421   0.00801  -0.2581  0.4624  1.0000  -2.2077   0.0000   0.0000   0.0000   0.3857
   5.250   1.7691   0.01446   0.00822  -0.2573  0.4593  1.0000  -2.2367   0.0000   0.0000   0.0000   0.3828
   5.500   1.7922   0.01472   0.00846  -0.2565  0.4563  1.0000  -2.2694   0.0000   0.0000   0.0000   0.3801
   5.750   1.8139   0.01494   0.00871  -0.2555  0.4528  1.0000  -2.3008   0.0000   0.0000   0.0000   0.3773
   6.000   1.8357   0.01519   0.00896  -0.2545  0.4496  1.0000  -2.3325   0.0000   0.0000   0.0000   0.3746
   6.250   1.8581   0.01551   0.00923  -0.2537  0.4466  1.0000  -2.3648   0.0000   0.0000   0.0000   0.3720
   6.500   1.8784   0.01574   0.00952  -0.2524  0.4430  1.0000  -2.3951   0.0000   0.0000   0.0000   0.3693
   6.750   1.8987   0.01601   0.00980  -0.2512  0.4394  1.0000  -2.4256   0.0000   0.0000   0.0000   0.3667
   7.000   1.9199   0.01637   0.01011  -0.2502  0.4363  1.0000  -2.4587   0.0000   0.0000   0.0000   0.3642
   7.250   1.9393   0.01664   0.01045  -0.2489  0.4327  1.0000  -2.4902   0.0000   0.0000   0.0000   0.3617
   7.500   1.9589   0.01695   0.01080  -0.2476  0.4293  1.0000  -2.5220   0.0000   0.0000   0.0000   0.3593
   7.750   1.9793   0.01734   0.01115  -0.2465  0.4263  1.0000  -2.5547   0.0000   0.0000   0.0000   0.3569
   8.000   1.9985   0.01768   0.01155  -0.2452  0.4231  1.0000  -2.5859   0.0000   0.0000   0.0000   0.3545
   8.250   2.0172   0.01803   0.01195  -0.2438  0.4198  1.0000  -2.6169   0.0000   0.0000   0.0000   0.3522
   8.500   2.0360   0.01845   0.01236  -0.2425  0.4167  1.0000  -2.6481   0.0000   0.0000   0.0000   0.3499
   8.750   2.0543   0.01886   0.01282  -0.2411  0.4134  1.0000  -2.6786   0.0000   0.0000   0.0000   0.3476
   9.000   2.0716   0.01928   0.01330  -0.2395  0.4100  1.0000  -2.7082   0.0000   0.0000   0.0000   0.3453
   9.250   2.0891   0.01975   0.01378  -0.2380  0.4069  1.0000  -2.7381   0.0000   0.0000   0.0000   0.3431
   9.500   2.1067   0.02024   0.01430  -0.2366  0.4038  1.0000  -2.7678   0.0000   0.0000   0.0000   0.3409
   9.750   2.1225   0.02073   0.01488  -0.2349  0.4003  1.0000  -2.7957   0.0000   0.0000   0.0000   0.3387
  10.000   2.1374   0.02130   0.01546  -0.2331  0.3965  1.0000  -2.8232   0.0000   0.0000   0.0000   0.3365
  10.250   2.1509   0.02191   0.01613  -0.2310  0.3922  1.0000  -2.8693   0.0000   0.0000   0.0000   0.3343
  10.500   2.1632   0.02257   0.01685  -0.2289  0.3875  1.0000  -2.9239   0.0000   0.0000   0.0000   0.3322
  10.750   2.1754   0.02331   0.01761  -0.2268  0.3832  1.0000  -2.9787   0.0000   0.0000   0.0000   0.3300
  11.000   2.1868   0.02407   0.01845  -0.2247  0.3783  1.0000  -3.0325   0.0000   0.0000   0.0000   0.3279
  11.250   2.1978   0.02495   0.01934  -0.2225  0.3742  1.0000  -3.0858   0.0000   0.0000   0.0000   0.3259
  11.500   2.2092   0.02577   0.02027  -0.2206  0.3697  1.0000  -3.1415   0.0000   0.0000   0.0000   0.3238
  11.750   2.2187   0.02679   0.02131  -0.2184  0.3656  1.0000  -3.2056   0.0000   0.0000   0.0000   0.3218
  12.000   2.2286   0.02779   0.02241  -0.2164  0.3609  1.0000  -3.2744   0.0000   0.0000   0.0000   0.3199
  12.250   2.2367   0.02897   0.02363  -0.2142  0.3565  1.0000  -3.3422   0.0000   0.0000   0.0000   0.3180
  12.500   2.2453   0.03016   0.02490  -0.2123  0.3522  1.0000  -3.4111   0.0000   0.0000   0.0000   0.3161
  12.750   2.2526   0.03148   0.02629  -0.2102  0.3475  1.0000  -3.4780   0.0000   0.0000   0.0000   0.3143
  13.000   2.2587   0.03296   0.02783  -0.2082  0.3427  1.0000  -3.5455   0.0000   0.0000   0.0000   0.3125
  13.250   2.2638   0.03459   0.02952  -0.2062  0.3375  1.0000  -3.6144   0.0000   0.0000   0.0000   0.3107
  13.500   2.2685   0.03632   0.03133  -0.2043  0.3323  1.0000  -3.6826   0.0000   0.0000   0.0000   0.3091
  13.750   2.2713   0.03827   0.03334  -0.2024  0.3270  1.0000  -3.7471   0.0000   0.0000   0.0000   0.3074
  14.000   2.2751   0.04022   0.03538  -0.2007  0.3217  1.0000  -3.8138   0.0000   0.0000   0.0000   0.3059
  14.250   2.2751   0.04259   0.03779  -0.1988  0.3165  1.0000  -3.8875   0.0000   0.0000   0.0000   0.3044
  14.500   2.2777   0.04481   0.04011  -0.1973  0.3108  1.0000  -3.9726   0.0000   0.0000   0.0000   0.3029
  14.750   2.2760   0.04750   0.04285  -0.1956  0.3053  1.0000  -4.0468   0.0000   0.0000   0.0000   0.3015
  15.000   2.2744   0.05029   0.04573  -0.1941  0.2992  1.0000  -4.1210   0.0000   0.0000   0.0000   0.3002
  15.250   2.2717   0.05328   0.04880  -0.1926  0.2929  1.0000  -4.1961   0.0000   0.0000   0.0000   0.2990
  15.500   2.2655   0.05674   0.05231  -0.1912  0.2863  1.0000  -4.2645   0.0000   0.0000   0.0000   0.2978
  15.750   2.2581   0.06045   0.05609  -0.1898  0.2792  1.0000  -4.3289   0.0000   0.0000   0.0000   0.2968
  16.000   2.2507   0.06425   0.05996  -0.1887  0.2715  1.0000  -4.3936   0.0000   0.0000   0.0000   0.2958
  16.250   2.2413   0.06839   0.06417  -0.1876  0.2637  1.0000  -4.4516   0.0000   0.0000   0.0000   0.2949
  16.500   2.2292   0.07297   0.06881  -0.1866  0.2554  1.0000  -4.5006   0.0000   0.0000   0.0000   0.2942
  16.750   2.2152   0.07790   0.07379  -0.1858  0.2464  1.0000  -4.5432   0.0000   0.0000   0.0000   0.2936
  17.000   2.1992   0.08321   0.07914  -0.1852  0.2363  1.0000  -4.6096   0.0000   0.0000   0.0000   0.2931
  17.250   2.1803   0.08901   0.08496  -0.1848  0.2257  1.0000  -4.6633   0.0000   0.0000   0.0000   0.2929
  17.500   2.1607   0.09502   0.09099  -0.1846  0.2148  1.0000  -4.7116   0.0000   0.0000   0.0000   0.2928
  17.750   2.1419   0.10098   0.09697  -0.1846  0.2030  1.0000  -4.7621   0.0000   0.0000   0.0000   0.2928
  18.000   2.1205   0.10738   0.10337  -0.1850  0.1913  1.0000  -4.7947   0.0000   0.0000   0.0000   0.2930
  18.250   2.1017   0.11345   0.10944  -0.1856  0.1787  1.0000  -4.8380   0.0000   0.0000   0.0000   0.2933
  18.500   2.0820   0.11966   0.11563  -0.1865  0.1673  1.0000  -4.8728   0.0000   0.0000   0.0000   0.2938
  18.750   2.0644   0.12560   0.12156  -0.1876  0.1569  1.0000  -4.9155   0.0000   0.0000   0.0000   0.2943
  19.000   2.0501   0.13101   0.12697  -0.1887  0.1471  1.0000  -4.9748   0.0000   0.0000   0.0000   0.2948
  19.250   2.0374   0.13618   0.13213  -0.1901  0.1385  1.0000  -5.0415   0.0000   0.0000   0.0000   0.2952
  19.500   2.0272   0.14094   0.13690  -0.1914  0.1306  1.0000  -5.1221   0.0000   0.0000   0.0000   0.2956
  19.750   2.0184   0.14549   0.14146  -0.1929  0.1233  1.0000  -5.2093   0.0000   0.0000   0.0000   0.2959
  20.000   2.0107   0.14983   0.14581  -0.1944  0.1168  1.0000  -5.3034   0.0000   0.0000   0.0000   0.2962
  20.250   2.0044   0.15396   0.14996  -0.1959  0.1106  1.0000  -5.4052   0.0000   0.0000   0.0000   0.2965
  20.500   1.9987   0.15796   0.15397  -0.1975  0.1048  1.0000  -5.5107   0.0000   0.0000   0.0000   0.2968
  20.750   1.9930   0.16194   0.15796  -0.1992  0.0994  1.0000  -5.6160   0.0000   0.0000   0.0000   0.2971
  21.000   1.9883   0.16575   0.16179  -0.2010  0.0941  1.0000  -5.7272   0.0000   0.0000   0.0000   0.2974
  21.250   1.9852   0.16930   0.16537  -0.2026  0.0889  1.0000  -5.8495   0.0000   0.0000   0.0000   0.2976
  21.500   1.9822   0.17282   0.16891  -0.2044  0.0840  1.0000  -5.9727   0.0000   0.0000   0.0000   0.2978
  21.750   1.9795   0.17623   0.17235  -0.2062  0.0792  1.0000  -6.0985   0.0000   0.0000   0.0000   0.2980
  22.000   1.9762   0.17978   0.17592  -0.2081  0.0748  1.0000  -6.2192   0.0000   0.0000   0.0000   0.2983
  22.250   1.9727   0.18331   0.17947  -0.2101  0.0707  1.0000  -6.3385   0.0000   0.0000   0.0000   0.2987
  22.750   1.9682   0.18992   0.18613  -0.2141  0.0626  1.0000  -6.5958   0.0000   0.0000   0.0000   0.2992
  23.000   1.9665   0.19313   0.18936  -0.2161  0.0588  1.0000  -6.7294   0.0000   0.0000   0.0000   0.2995
  23.250   1.9648   0.19629   0.19255  -0.2181  0.0554  1.0000  -6.8624   0.0000   0.0000   0.0000   0.2997
  23.500   1.9626   0.19956   0.19585  -0.2203  0.0523  1.0000  -6.9924   0.0000   0.0000   0.0000   0.3001
  23.750   1.9604   0.20279   0.19910  -0.2225  0.0495  1.0000  -7.1294   0.0000   0.0000   0.0000   0.3005
  24.000   1.9600   0.20569   0.20206  -0.2246  0.0465  1.0000  -7.2833   0.0000   0.0000   0.0000   0.3006
  24.250   1.9588   0.20872   0.20512  -0.2268  0.0439  1.0000  -7.4302   0.0000   0.0000   0.0000   0.3009
  24.500   1.9570   0.21183   0.20826  -0.2291  0.0416  1.0000  -7.5712   0.0000   0.0000   0.0000   0.3013
  24.750   1.9549   0.21500   0.21146  -0.2315  0.0392  1.0000  -7.7082   0.0000   0.0000   0.0000   0.3017
  25.000   1.9541   0.21789   0.21440  -0.2338  0.0368  1.0000  -7.8596   0.0000   0.0000   0.0000   0.3020


