xflr5 v6.59

 Calculated polar for: TKV2008

 1 1 Reynolds number fixed          Mach number fixed         

 xtrf =   1.000 (top)        1.000 (bottom)
 Mach =   0.000     Re =     0.060 e 6     Ncrit =   9.000

  alpha     CL        CD       CDp       Cm    Top Xtr Bot Xtr   Cpmin    Chinge    XCp    
 ------- -------- --------- --------- -------- ------- ------- -------- --------- ---------
 -25.000  -0.4548   0.26933   0.26130  -0.0022  1.0000  0.0336  -1.2763   0.0000   0.0000   0.0000   0.2024
 -24.750  -0.4474   0.26727   0.25926  -0.0037  1.0000  0.0340  -1.2689   0.0000   0.0000   0.0000   0.1988
 -24.500  -0.4400   0.26523   0.25723  -0.0053  1.0000  0.0344  -1.2626   0.0000   0.0000   0.0000   0.1951
 -24.250  -0.4325   0.26323   0.25524  -0.0068  1.0000  0.0348  -1.2573   0.0000   0.0000   0.0000   0.1912
 -24.000  -0.4251   0.26121   0.25324  -0.0084  1.0000  0.0351  -1.2540   0.0000   0.0000   0.0000   0.1871
 -23.500  -0.4105   0.25738   0.24945  -0.0115  1.0000  0.0355  -1.2621   0.0000   0.0000   0.0000   0.1786
 -23.250  -0.4028   0.25497   0.24706  -0.0128  1.0000  0.0358  -1.2477   0.0000   0.0000   0.0000   0.1747
 -23.000  -0.3952   0.25283   0.24494  -0.0142  1.0000  0.0363  -1.2380   0.0000   0.0000   0.0000   0.1705
 -22.750  -0.3877   0.25074   0.24287  -0.0155  1.0000  0.0367  -1.2311   0.0000   0.0000   0.0000   0.1661
 -22.500  -0.3802   0.24866   0.24081  -0.0169  1.0000  0.0371  -1.2259   0.0000   0.0000   0.0000   0.1616
 -22.250  -0.3728   0.24661   0.23878  -0.0182  1.0000  0.0375  -1.2222   0.0000   0.0000   0.0000   0.1568
 -21.250  -0.3434   0.23832   0.23060  -0.0234  1.0000  0.0386  -1.2096   0.0000   0.0000   0.0000   0.1365
 -21.000  -0.3358   0.23609   0.22839  -0.0245  1.0000  0.0390  -1.2001   0.0000   0.0000   0.0000   0.1313
 -20.750  -0.3284   0.23395   0.22628  -0.0257  1.0000  0.0395  -1.1940   0.0000   0.0000   0.0000   0.1259
 -20.500  -0.3210   0.23185   0.22421  -0.0268  1.0000  0.0401  -1.1904   0.0000   0.0000   0.0000   0.1202
 -20.250  -0.3138   0.22981   0.22220  -0.0279  1.0000  0.0406  -1.1897   0.0000   0.0000   0.0000   0.1143
 -19.500  -0.2927   0.22367   0.21616  -0.0312  1.0000  0.0416  -1.1888   0.0000   0.0000   0.0000   0.0956
 -19.250  -0.2854   0.22136   0.21388  -0.0320  1.0000  0.0421  -1.1748   0.0000   0.0000   0.0000   0.0894
 -19.000  -0.2783   0.21924   0.21180  -0.0329  1.0000  0.0427  -1.1657   0.0000   0.0000   0.0000   0.0828
 -18.750  -0.2713   0.21714   0.20974  -0.0338  1.0000  0.0432  -1.1596   0.0000   0.0000   0.0000   0.0760
 -18.500  -0.2646   0.21514   0.20777  -0.0347  1.0000  0.0438  -1.1564   0.0000   0.0000   0.0000   0.0690
 -18.250  -0.2582   0.21321   0.20588  -0.0357  1.0000  0.0442  -1.1585   0.0000   0.0000   0.0000   0.0617
 -17.750  -0.2453   0.20910   0.20187  -0.0372  1.0000  0.0448  -1.1629   0.0000   0.0000   0.0000   0.0470
 -17.500  -0.2384   0.20680   0.19960  -0.0377  1.0000  0.0453  -1.1514   0.0000   0.0000   0.0000   0.0398
 -17.250  -0.2320   0.20469   0.19754  -0.0383  1.0000  0.0460  -1.1458   0.0000   0.0000   0.0000   0.0323
 -17.000  -0.2258   0.20267   0.19557  -0.0389  1.0000  0.0466  -1.1442   0.0000   0.0000   0.0000   0.0246
 -16.750  -0.2201   0.20075   0.19371  -0.0395  1.0000  0.0472  -1.1468   0.0000   0.0000   0.0000   0.0169
 -16.500  -0.2148   0.19903   0.19203  -0.0401  1.0000  0.0476  -1.1548   0.0000   0.0000   0.0000   0.0092
 -16.250  -0.2100   0.19738   0.19045  -0.0407  1.0000  0.0479  -1.1653   0.0000   0.0000   0.0000   0.0018
 -16.000  -0.2036   0.19478   0.18790  -0.0408  1.0000  0.0486  -1.1440   0.0000   0.0000   0.0000  -0.0055
 -15.750  -0.1981   0.19271   0.18589  -0.0410  1.0000  0.0494  -1.1337   0.0000   0.0000   0.0000  -0.0125
 -15.500  -0.1932   0.19082   0.18406  -0.0412  1.0000  0.0502  -1.1297   0.0000   0.0000   0.0000  -0.0192
 -15.250  -0.1891   0.18912   0.18243  -0.0414  1.0000  0.0509  -1.1322   0.0000   0.0000   0.0000  -0.0251
 -15.000  -0.1860   0.18771   0.18109  -0.0416  1.0000  0.0514  -1.1422   0.0000   0.0000   0.0000  -0.0298
 -14.750  -0.1825   0.18587   0.17933  -0.0416  1.0000  0.0517  -1.1404   0.0000   0.0000   0.0000  -0.0337
 -14.500  -0.1784   0.18370   0.17724  -0.0411  1.0000  0.0525  -1.1220   0.0000   0.0000   0.0000  -0.0368
 -14.250  -0.1757   0.18199   0.17561  -0.0407  1.0000  0.0532  -1.1132   0.0000   0.0000   0.0000  -0.0376
 -14.000  -0.1743   0.18052   0.17423  -0.0401  1.0000  0.0540  -1.1162   0.0000   0.0000   0.0000  -0.0356
 -13.750  -0.1745   0.17933   0.17314  -0.0394  1.0000  0.0547  -1.1251   0.0000   0.0000   0.0000  -0.0298
 -13.500  -0.1769   0.17856   0.17247  -0.0384  1.0000  0.0552  -1.1405   0.0000   0.0000   0.0000  -0.0190
 -13.000  -0.1883   0.17752   0.17169  -0.0347  1.0000  0.0557  -1.1617   0.0000   0.0000   0.0000   0.0190
 -12.750  -0.1970   0.17723   0.17154  -0.0320  1.0000  0.0562  -1.1595   0.0000   0.0000   0.0000   0.0441
 -12.500  -0.2081   0.17747   0.17190  -0.0292  1.0000  0.0566  -1.1640   0.0000   0.0000   0.0000   0.0696
 -12.250  -0.2195   0.17781   0.17237  -0.0266  1.0000  0.0571  -1.1711   0.0000   0.0000   0.0000   0.0915
 -12.000  -0.2298   0.17806   0.17272  -0.0244  1.0000  0.0576  -1.1794   0.0000   0.0000   0.0000   0.1089
 -11.750  -0.2083   0.17504   0.16969  -0.0302  0.9944  0.0590  -1.1766   0.0000   0.0000   0.0000   0.0663
 -11.500  -0.1848   0.17233   0.16697  -0.0372  0.9871  0.0597  -1.1931   0.0000   0.0000   0.0000   0.0046
 -11.250  -0.1577   0.16769   0.16230  -0.0424  0.9802  0.0612  -1.1466   0.0000   0.0000   0.0000  -0.0711
 -11.000  -0.1344   0.16428   0.15888  -0.0480  0.9729  0.0629  -1.1319   0.0000   0.0000   0.0000  -0.1687
 -10.750  -0.1156   0.16180   0.15638  -0.0535  0.9650  0.0641  -1.1454   0.0000   0.0000   0.0000  -0.2848
 -10.500  -0.0942   0.15776   0.15234  -0.0575  0.9570  0.0655  -1.1119   0.0000   0.0000   0.0000  -0.4489
 -10.250  -0.0751   0.15457   0.14914  -0.0616  0.9489  0.0675  -1.0925   0.0000   0.0000   0.0000  -0.6799
 -10.000  -0.0603   0.15241   0.14698  -0.0659  0.9406  0.0690  -1.1035   0.0000   0.0000   0.0000  -0.9787
  -9.750  -0.0412   0.14879   0.14335  -0.0694  0.9331  0.0702  -1.0804   0.0000   0.0000   0.0000  -1.6297
  -9.500  -0.0225   0.14554   0.14009  -0.0729  0.9257  0.0723  -1.0643   0.0000   0.0000   0.0000  -3.3561
  -9.250  -0.0047   0.14300   0.13754  -0.0775  0.9192  0.0741  -1.0781   0.0000   0.0000   0.0000  -17.8870
  -9.000   0.0077   0.14050   0.13505  -0.0801  0.9109  0.0751  -1.0835   0.0000   0.0000   0.0000  11.7545
  -8.750   0.0228   0.13731   0.13185  -0.0818  0.9027  0.0770  -1.0562   0.0000   0.0000   0.0000   4.1759
  -8.500   0.0330   0.13531   0.12986  -0.0838  0.8943  0.0791  -1.0579   0.0000   0.0000   0.0000   3.0239
  -8.250   0.0377   0.13444   0.12900  -0.0858  0.8859  0.0803  -1.0873   0.0000   0.0000   0.0000   2.7247
  -8.000   0.0629   0.12991   0.12445  -0.0893  0.8812  0.0823  -1.0490   0.0000   0.0000   0.0000   1.7879
  -7.750   0.0679   0.12838   0.12294  -0.0895  0.8723  0.0843  -1.0436   0.0000   0.0000   0.0000   1.6755
  -7.500   0.0684   0.12770   0.12228  -0.0897  0.8634  0.0860  -1.0596   0.0000   0.0000   0.0000   1.6661
  -7.250   0.0650   0.12788   0.12250  -0.0903  0.8552  0.0868  -1.0978   0.0000   0.0000   0.0000   1.7465
  -7.000   0.0876   0.12335   0.11795  -0.0917  0.8496  0.0895  -1.0396   0.0000   0.0000   0.0000   1.3756
  -6.750   0.0826   0.12304   0.11769  -0.0900  0.8408  0.0913  -1.0433   0.0000   0.0000   0.0000   1.4203
  -6.500   0.0813   0.12281   0.11748  -0.0905  0.8341  0.0933  -1.0690   0.0000   0.0000   0.0000   1.4430
  -6.250   0.0662   0.12404   0.11876  -0.0885  0.8257  0.0937  -1.1069   0.0000   0.0000   0.0000   1.6808
  -6.000   0.0675   0.12186   0.11663  -0.0855  0.8177  0.0953  -1.0656   0.0000   0.0000   0.0000   1.6056
  -5.750   0.0805   0.11960   0.11436  -0.0870  0.8130  0.0990  -1.0484   0.0000   0.0000   0.0000   1.4047
  -5.500   0.0533   0.12149   0.11634  -0.0811  0.8037  0.0991  -1.0693   0.0000   0.0000   0.0000   1.8801
  -5.250   0.0344   0.12259   0.11752  -0.0775  0.7966  0.1000  -1.0922   0.0000   0.0000   0.0000   2.6596
  -5.000   0.0182   0.12365   0.11864  -0.0754  0.7902  0.1008  -1.1252   0.0000   0.0000   0.0000   4.6813
  -4.750  -0.0047   0.12521   0.12028  -0.0717  0.7835  0.1010  -1.1542   0.0000   0.0000   0.0000  -15.9621
  -4.500   0.0004   0.12279   0.11788  -0.0701  0.7786  0.1028  -1.1192   0.0000   0.0000   0.0000  174.3965
  -4.250  -0.0052   0.12228   0.11742  -0.0681  0.7736  0.1048  -1.1103   0.0000   0.0000   0.0000  -13.8054
  -4.000  -0.0230   0.12305   0.11826  -0.0648  0.7680  0.1058  -1.1232   0.0000   0.0000   0.0000  -2.7755
  -3.750  -0.0165   0.12248   0.11769  -0.0691  0.7642  0.1090  -1.1537   0.0000   0.0000   0.0000  -4.2123
  -3.500  -0.0419   0.12406   0.11937  -0.0653  0.7601  0.1090  -1.1775   0.0000   0.0000   0.0000  -1.4141
  -3.250  -0.0526   0.12399   0.11937  -0.0640  0.7572  0.1097  -1.1878   0.0000   0.0000   0.0000  -1.0499
  -3.000  -0.0521   0.12224   0.11766  -0.0613  0.7543  0.1118  -1.1569   0.0000   0.0000   0.0000  -1.0065
  -2.750  -0.1714   0.13321   0.12905  -0.0446  0.8189  0.1035  -1.2547   0.0000   0.0000   0.0000  -0.0363
  -2.250  -0.1221   0.12699   0.12273  -0.0531  0.7855  0.1122  -1.2122   0.0000   0.0000   0.0000  -0.2197
  -1.000  -0.1460   0.12534   0.12137  -0.0549  0.8333  0.1216  -1.2415   0.0000   0.0000   0.0000  -0.1535
   0.250   0.0129   0.11681   0.11264  -0.0880  0.8001  0.1599  -1.1247   0.0000   0.0000   0.0000   7.2994
   3.500   0.6730   0.11677   0.10964  -0.2061  0.7075  0.1357  -0.8655   0.0000   0.0000   0.0000   0.5533
   3.750   0.7288   0.11910   0.11138  -0.2121  0.7029  0.1371  -0.8900   0.0000   0.0000   0.0000   0.5374
   4.000   0.7372   0.12055   0.11282  -0.2120  0.6942  0.1405  -0.8882   0.0000   0.0000   0.0000   0.5335
   4.250   0.7832   0.12330   0.11525  -0.2158  0.6902  0.1524  -0.9221   0.0000   0.0000   0.0000   0.5207
   4.500   0.7880   0.12475   0.11660  -0.2152  0.6811  0.1597  -0.9177   0.0000   0.0000   0.0000   0.5179
   5.000   0.8297   0.12897   0.12070  -0.2165  0.6682  0.2135  -0.9413   0.0000   0.0000   0.0000   0.5046
   5.250   0.8739   0.13066   0.12412  -0.2191  0.6653  1.0000  -0.9749   0.0000   0.0000   0.0000   0.4939
   5.500   0.8732   0.13219   0.12537  -0.2181  0.6559  1.0000  -0.9639   0.0000   0.0000   0.0000   0.4924
   5.750   0.8880   0.13488   0.12774  -0.2183  0.6507  1.0000  -0.9701   0.0000   0.0000   0.0000   0.4880
   6.000   0.9052   0.13710   0.12971  -0.2185  0.6431  1.0000  -0.9814   0.0000   0.0000   0.0000   0.4830
   6.250   0.9132   0.13946   0.13191  -0.2183  0.6368  1.0000  -0.9823   0.0000   0.0000   0.0000   0.4802
   6.500   0.9353   0.14197   0.13422  -0.2188  0.6305  1.0000  -0.9997   0.0000   0.0000   0.0000   0.4746
   6.750   0.9403   0.14416   0.13632  -0.2186  0.6239  1.0000  -0.9962   0.0000   0.0000   0.0000   0.4726
   7.000   0.9631   0.14679   0.13879  -0.2192  0.6183  1.0000  -1.0152   0.0000   0.0000   0.0000   0.4671
   7.250   0.9670   0.14891   0.14084  -0.2190  0.6119  1.0000  -1.0117   0.0000   0.0000   0.0000   0.4655
   7.500   0.9895   0.15156   0.14336  -0.2196  0.6063  1.0000  -1.0320   0.0000   0.0000   0.0000   0.4604
   7.750   0.9931   0.15359   0.14535  -0.2195  0.5998  1.0000  -1.0283   0.0000   0.0000   0.0000   0.4590
   8.000   1.0153   0.15627   0.14792  -0.2200  0.5943  1.0000  -1.0485   0.0000   0.0000   0.0000   0.4542
   8.250   1.0189   0.15831   0.14993  -0.2200  0.5883  1.0000  -1.0455   0.0000   0.0000   0.0000   0.4530
   8.500   1.0391   0.16090   0.15245  -0.2205  0.5827  1.0000  -1.0668   0.0000   0.0000   0.0000   0.4487
   8.750   1.0446   0.16308   0.15460  -0.2208  0.5774  1.0000  -1.0683   0.0000   0.0000   0.0000   0.4473
   9.000   1.0626   0.16550   0.15697  -0.2212  0.5712  1.0000  -1.0863   0.0000   0.0000   0.0000   0.4436
   9.250   1.0703   0.16782   0.15927  -0.2216  0.5663  1.0000  -1.0896   0.0000   0.0000   0.0000   0.4419
   9.500   1.0857   0.17007   0.16149  -0.2219  0.5599  1.0000  -1.1048   0.0000   0.0000   0.0000   0.4388
   9.750   1.0965   0.17264   0.16405  -0.2225  0.5555  1.0000  -1.1162   0.0000   0.0000   0.0000   0.4367
  10.000   1.1084   0.17463   0.16603  -0.2228  0.5486  1.0000  -1.1298   0.0000   0.0000   0.0000   0.4343
  10.250   1.1229   0.17751   0.16890  -0.2235  0.5447  1.0000  -1.1455   0.0000   0.0000   0.0000   0.4317
  10.500   1.1313   0.17919   0.17059  -0.2238  0.5373  1.0000  -1.1532   0.0000   0.0000   0.0000   0.4300
  10.750   1.1481   0.18231   0.17371  -0.2245  0.5336  1.0000  -1.1764   0.0000   0.0000   0.0000   0.4272
  11.000   1.1540   0.18375   0.17518  -0.2250  0.5260  1.0000  -1.1841   0.0000   0.0000   0.0000   0.4260
  11.250   1.1699   0.18682   0.17825  -0.2256  0.5222  1.0000  -1.2055   0.0000   0.0000   0.0000   0.4234
  11.500   1.1770   0.18835   0.17981  -0.2262  0.5146  1.0000  -1.2171   0.0000   0.0000   0.0000   0.4221
  11.750   1.1884   0.19101   0.18250  -0.2269  0.5101  1.0000  -1.2338   0.0000   0.0000   0.0000   0.4204
  12.000   1.2005   0.19302   0.18454  -0.2275  0.5030  1.0000  -1.2523   0.0000   0.0000   0.0000   0.4183
  12.250   1.2075   0.19525   0.18681  -0.2284  0.4977  1.0000  -1.2606   0.0000   0.0000   0.0000   0.4174
  12.500   1.2241   0.19780   0.18939  -0.2289  0.4914  1.0000  -1.2870   0.0000   0.0000   0.0000   0.4147
  12.750   1.2277   0.19964   0.19129  -0.2299  0.4851  1.0000  -1.2916   0.0000   0.0000   0.0000   0.4144
  13.000   1.2496   0.20292   0.19460  -0.2304  0.4796  1.0000  -1.3287   0.0000   0.0000   0.0000   0.4108
  13.250   1.2497   0.20419   0.19593  -0.2315  0.4722  1.0000  -1.3277   0.0000   0.0000   0.0000   0.4112
  13.500   1.2717   0.20800   0.19979  -0.2320  0.4679  1.0000  -1.3673   0.0000   0.0000   0.0000   0.4078
  13.750   1.2737   0.20904   0.20089  -0.2331  0.4596  1.0000  -1.3696   0.0000   0.0000   0.0000   0.4078
  14.000   1.2797   0.21122   0.20314  -0.2343  0.4535  1.0000  -1.3796   0.0000   0.0000   0.0000   0.4073
  14.250   1.3011   0.21456   0.20654  -0.2347  0.4474  1.0000  -1.4235   0.0000   0.0000   0.0000   0.4039
  14.500   1.3012   0.21580   0.20785  -0.2362  0.4395  1.0000  -1.4231   0.0000   0.0000   0.0000   0.4044
  14.750   1.3111   0.21843   0.21054  -0.2373  0.4339  1.0000  -1.4413   0.0000   0.0000   0.0000   0.4033
  15.000   1.3278   0.22121   0.21340  -0.2378  0.4267  1.0000  -1.4745   0.0000   0.0000   0.0000   0.4008
  15.250   1.3292   0.22279   0.21505  -0.2395  0.4192  1.0000  -1.4728   0.0000   0.0000   0.0000   0.4012
  15.500   1.3404   0.22558   0.21792  -0.2406  0.4135  1.0000  -1.4952   0.0000   0.0000   0.0000   0.3999
  15.750   1.3555   0.22826   0.22068  -0.2412  0.4060  1.0000  -1.5295   0.0000   0.0000   0.0000   0.3977
  16.000   1.3568   0.22990   0.22239  -0.2430  0.3985  1.0000  -1.5309   0.0000   0.0000   0.0000   0.3983
  16.250   1.3670   0.23264   0.22522  -0.2443  0.3929  1.0000  -1.5541   0.0000   0.0000   0.0000   0.3972
  16.500   1.3838   0.23561   0.22828  -0.2448  0.3853  1.0000  -1.5969   0.0000   0.0000   0.0000   0.3947
  17.500   1.4099   0.24440   0.23739  -0.2510  0.3575  1.0000  -1.6592   0.0000   0.0000   0.0000   0.3932
  17.750   1.4165   0.24691   0.23998  -0.2528  0.3517  1.0000  -1.6758   0.0000   0.0000   0.0000   0.3930
  18.250   1.0824   0.26737   0.26219  -0.2066  0.3075  1.0000  -1.0879   0.0000   0.0000   0.0000   0.4073
  18.500   1.0791   0.27066   0.26557  -0.2078  0.3014  1.0000  -1.0749   0.0000   0.0000   0.0000   0.4085
  18.750   1.0878   0.27429   0.26928  -0.2082  0.2965  1.0000  -1.1011   0.0000   0.0000   0.0000   0.4066
  19.000   1.0873   0.27729   0.27237  -0.2092  0.2894  1.0000  -1.0987   0.0000   0.0000   0.0000   0.4070
  19.250   1.0860   0.28093   0.27608  -0.2103  0.2840  1.0000  -1.0910   0.0000   0.0000   0.0000   0.4077
  19.500   1.0984   0.28459   0.27984  -0.2103  0.2785  1.0000  -1.1297   0.0000   0.0000   0.0000   0.4048
  19.750   1.0916   0.28780   0.28312  -0.2119  0.2719  1.0000  -1.1057   0.0000   0.0000   0.0000   0.4069
  20.000   1.0936   0.29163   0.28703  -0.2128  0.2674  1.0000  -1.1090   0.0000   0.0000   0.0000   0.4067
  20.250   1.0997   0.29500   0.29050  -0.2133  0.2609  1.0000  -1.1301   0.0000   0.0000   0.0000   0.4054
  20.500   1.0959   0.29883   0.29439  -0.2147  0.2553  1.0000  -1.1164   0.0000   0.0000   0.0000   0.4068
  20.750   1.1041   0.30267   0.29832  -0.2150  0.2508  1.0000  -1.1463   0.0000   0.0000   0.0000   0.4048
  21.000   1.1010   0.30621   0.30195  -0.2164  0.2443  1.0000  -1.1366   0.0000   0.0000   0.0000   0.4061
  21.250   1.1015   0.31034   0.30614  -0.2175  0.2400  1.0000  -1.1406   0.0000   0.0000   0.0000   0.4063
  21.500   1.1075   0.31388   0.30978  -0.2179  0.2340  1.0000  -1.1698   0.0000   0.0000   0.0000   0.4049
  21.750   1.1035   0.31806   0.31403  -0.2195  0.2288  1.0000  -1.1554   0.0000   0.0000   0.0000   0.4064
  22.000   1.1120   0.32196   0.31801  -0.2196  0.2244  1.0000  -1.1923   0.0000   0.0000   0.0000   0.4042
  22.250   1.1071   0.32593   0.32205  -0.2213  0.2185  1.0000  -1.1715   0.0000   0.0000   0.0000   0.4060
  22.500   1.1092   0.33017   0.32637  -0.2222  0.2145  1.0000  -1.1787   0.0000   0.0000   0.0000   0.4057
  22.750   1.1117   0.33394   0.33022  -0.2230  0.2085  1.0000  -1.1929   0.0000   0.0000   0.0000   0.4052
  23.000   1.1095   0.33848   0.33482  -0.2244  0.2041  1.0000  -1.1819   0.0000   0.0000   0.0000   0.4062
  23.250   1.1173   0.34230   0.33873  -0.2245  0.1990  1.0000  -1.2200   0.0000   0.0000   0.0000   0.4040
  23.500   1.1116   0.34687   0.34336  -0.2264  0.1940  1.0000  -1.1915   0.0000   0.0000   0.0000   0.4062
  23.750   1.1170   0.35104   0.34761  -0.2267  0.1900  1.0000  -1.2161   0.0000   0.0000   0.0000   0.4047
  24.000   1.1143   0.35533   0.35196  -0.2282  0.1843  1.0000  -1.1998   0.0000   0.0000   0.0000   0.4058
  24.250   1.1150   0.35994   0.35663  -0.2292  0.1806  1.0000  -1.1972   0.0000   0.0000   0.0000   0.4058
  24.500   1.1176   0.36394   0.36071  -0.2299  0.1750  1.0000  -1.2064   0.0000   0.0000   0.0000   0.4052
  24.750   1.1152   0.36891   0.36573  -0.2314  0.1710  1.0000  -1.1892   0.0000   0.0000   0.0000   0.4063
  25.000   1.1210   0.37284   0.36975  -0.2316  0.1662  1.0000  -1.2419   0.0000   0.0000   0.0000   0.4045


