xflr5 v6.59

 Calculated polar for: TKV2008

 1 1 Reynolds number fixed          Mach number fixed         

 xtrf =   1.000 (top)        1.000 (bottom)
 Mach =   0.000     Re =     0.330 e 6     Ncrit =   9.000

  alpha     CL        CD       CDp       Cm    Top Xtr Bot Xtr   Cpmin    Chinge    XCp    
 ------- -------- --------- --------- -------- ------- ------- -------- --------- ---------
 -23.000  -0.4086   0.25127   0.24793  -0.0083  1.0000  0.0104  -1.3559   0.0000   0.0000   0.0000   0.1876
 -22.750  -0.4014   0.24910   0.24577  -0.0096  1.0000  0.0104  -1.3314   0.0000   0.0000   0.0000   0.1841
 -22.500  -0.3941   0.24697   0.24365  -0.0109  1.0000  0.0105  -1.3139   0.0000   0.0000   0.0000   0.1804
 -22.250  -0.3868   0.24481   0.24150  -0.0122  1.0000  0.0106  -1.3007   0.0000   0.0000   0.0000   0.1764
 -22.000  -0.3795   0.24271   0.23941  -0.0134  1.0000  0.0107  -1.2898   0.0000   0.0000   0.0000   0.1723
 -21.750  -0.3721   0.24056   0.23727  -0.0147  1.0000  0.0108  -1.2803   0.0000   0.0000   0.0000   0.1681
 -21.500  -0.3647   0.23839   0.23511  -0.0159  1.0000  0.0109  -1.2715   0.0000   0.0000   0.0000   0.1638
 -21.250  -0.3574   0.23620   0.23293  -0.0171  1.0000  0.0111  -1.2631   0.0000   0.0000   0.0000   0.1594
 -21.000  -0.3500   0.23400   0.23075  -0.0183  1.0000  0.0112  -1.2548   0.0000   0.0000   0.0000   0.1548
 -18.500  -0.2794   0.21154   0.20843  -0.0284  1.0000  0.0120  -1.3074   0.0000   0.0000   0.0000   0.1019
 -18.250  -0.2728   0.20932   0.20623  -0.0291  1.0000  0.0121  -1.2772   0.0000   0.0000   0.0000   0.0968
 -18.000  -0.2662   0.20718   0.20411  -0.0297  1.0000  0.0122  -1.2555   0.0000   0.0000   0.0000   0.0913
 -17.750  -0.2598   0.20506   0.20200  -0.0304  1.0000  0.0123  -1.2388   0.0000   0.0000   0.0000   0.0857
 -17.500  -0.2534   0.20293   0.19989  -0.0310  1.0000  0.0124  -1.2244   0.0000   0.0000   0.0000   0.0800
 -17.250  -0.2472   0.20081   0.19780  -0.0316  1.0000  0.0126  -1.2119   0.0000   0.0000   0.0000   0.0742
 -17.000  -0.2412   0.19870   0.19571  -0.0321  1.0000  0.0127  -1.2078   0.0000   0.0000   0.0000   0.0685
 -16.750  -0.2354   0.19658   0.19361  -0.0326  1.0000  0.0129  -1.2081   0.0000   0.0000   0.0000   0.0629
 -16.500  -0.2298   0.19447   0.19153  -0.0330  1.0000  0.0131  -1.2098   0.0000   0.0000   0.0000   0.0575
 -15.750  -0.0892   0.18278   0.18007  -0.0562  0.9899  0.0137  -1.0619   0.0000   0.0000   0.0000  -0.4813
 -15.500  -0.0774   0.17969   0.17696  -0.0588  0.9881  0.0138  -1.0321   0.0000   0.0000   0.0000  -0.6266
 -15.250  -0.0653   0.17667   0.17393  -0.0617  0.9867  0.0139  -1.0151   0.0000   0.0000   0.0000  -0.8336
 -14.750  -0.1554   0.17547   0.17264  -0.0466  0.9951  0.0138  -1.2522   0.0000   0.0000   0.0000  -0.1169
 -13.000   0.0543   0.14631   0.14350  -0.0891  0.9672  0.0155  -1.0539   0.0000   0.0000   0.0000   2.0660
 -12.750   0.0677   0.14297   0.14016  -0.0914  0.9624  0.0157  -1.0260   0.0000   0.0000   0.0000   1.7406
 -12.500   0.0837   0.13943   0.13662  -0.0946  0.9589  0.0159  -1.0083   0.0000   0.0000   0.0000   1.4945
 -12.250   0.0908   0.13667   0.13387  -0.0951  0.9468  0.0161  -1.0022   0.0000   0.0000   0.0000   1.3999
 -11.750   0.0709   0.13178   0.12891  -0.0945  0.9551  0.0162  -1.1053   0.0000   0.0000   0.0000   1.7251
 -11.500   0.0802   0.12899   0.12613  -0.0954  0.9411  0.0164  -1.0995   0.0000   0.0000   0.0000   1.5631
 -11.250   0.0887   0.12626   0.12342  -0.0960  0.9222  0.0167  -1.0978   0.0000   0.0000   0.0000   1.4414
 -11.000   0.1075   0.12256   0.11968  -0.0997  0.9098  0.0170  -1.1000   0.0000   0.0000   0.0000   1.2664
 -10.750   0.1330   0.11824   0.11531  -0.1058  0.8990  0.0173  -1.1312   0.0000   0.0000   0.0000   1.1177
 -10.500   0.1668   0.11325   0.11026  -0.1138  0.8898  0.0174  -1.1064   0.0000   0.0000   0.0000   0.9905
 -10.250   0.2107   0.10787   0.10477  -0.1243  0.8797  0.0178  -1.0429   0.0000   0.0000   0.0000   0.8873
 -10.000   0.2640   0.10201   0.09875  -0.1379  0.8668  0.0186  -1.0196   0.0000   0.0000   0.0000   0.8117
  -9.500   0.3523   0.09247   0.08871  -0.1600  0.8159  0.0195  -1.0269   0.0000   0.0000   0.0000   0.7349
  -9.250   0.3680   0.09025   0.08629  -0.1621  0.7905  0.0198  -1.0002   0.0000   0.0000   0.0000   0.7194
  -9.000   0.3786   0.08835   0.08424  -0.1629  0.7715  0.0201  -0.9908   0.0000   0.0000   0.0000   0.7077
  -8.750   0.3879   0.08648   0.08227  -0.1634  0.7562  0.0205  -0.9988   0.0000   0.0000   0.0000   0.6973
  -8.500   0.3965   0.08460   0.08030  -0.1639  0.7435  0.0209  -1.0058   0.0000   0.0000   0.0000   0.6881
  -8.250   0.4035   0.08278   0.07841  -0.1647  0.7324  0.0212  -1.0635   0.0000   0.0000   0.0000   0.6817
  -8.000   0.4128   0.08083   0.07641  -0.1648  0.7225  0.0213  -1.0417   0.0000   0.0000   0.0000   0.6717
  -7.750   0.4228   0.07905   0.07455  -0.1650  0.7136  0.0216  -1.0288   0.0000   0.0000   0.0000   0.6613
  -7.500   0.4315   0.07732   0.07280  -0.1650  0.7048  0.0220  -1.0373   0.0000   0.0000   0.0000   0.6525
  -7.250   0.4400   0.07556   0.07101  -0.1652  0.6971  0.0226  -1.0451   0.0000   0.0000   0.0000   0.6445
  -7.000   0.4479   0.07376   0.06916  -0.1657  0.6904  0.0231  -1.0514   0.0000   0.0000   0.0000   0.6379
  -6.750   0.4525   0.07200   0.06740  -0.1661  0.6834  0.0233  -1.0612   0.0000   0.0000   0.0000   0.6341
  -6.500   0.4639   0.07020   0.06554  -0.1659  0.6776  0.0236  -1.0657   0.0000   0.0000   0.0000   0.6236
  -6.250   0.4714   0.06861   0.06397  -0.1655  0.6710  0.0241  -1.0739   0.0000   0.0000   0.0000   0.6160
  -6.000   0.4790   0.06697   0.06229  -0.1654  0.6657  0.0248  -1.0816   0.0000   0.0000   0.0000   0.6094
  -5.750   0.4790   0.06550   0.06085  -0.1648  0.6599  0.0254  -1.0820   0.0000   0.0000   0.0000   0.6073
  -5.500   0.4862   0.06390   0.05923  -0.1642  0.6549  0.0258  -1.0904   0.0000   0.0000   0.0000   0.6000
  -5.250   0.4960   0.06235   0.05768  -0.1641  0.6498  0.0264  -1.1000   0.0000   0.0000   0.0000   0.5924
  -5.000   0.5052   0.06064   0.05597  -0.1648  0.6446  0.0273  -1.1075   0.0000   0.0000   0.0000   0.5869
  -4.750   0.5179   0.05842   0.05371  -0.1681  0.6404  0.0279  -1.1135   0.0000   0.0000   0.0000   0.5843
  -4.500   0.5288   0.05685   0.05217  -0.1675  0.6350  0.0283  -1.1248   0.0000   0.0000   0.0000   0.5757
  -4.250   0.5440   0.05501   0.05029  -0.1692  0.6305  0.0292  -1.1362   0.0000   0.0000   0.0000   0.5691
  -4.000   0.5660   0.05220   0.04746  -0.1752  0.6263  0.0303  -1.1463   0.0000   0.0000   0.0000   0.5668
  -3.750   0.5805   0.05064   0.04591  -0.1751  0.6216  0.0309  -1.1608   0.0000   0.0000   0.0000   0.5581
  -3.500   0.6161   0.04715   0.04233  -0.1846  0.6177  0.0328  -1.1783   0.0000   0.0000   0.0000   0.5552
  -3.250   0.6319   0.04577   0.04096  -0.1842  0.6133  0.0335  -1.1942   0.0000   0.0000   0.0000   0.5464
  -3.000   0.6717   0.04232   0.03745  -0.1932  0.6088  0.0357  -1.2161   0.0000   0.0000   0.0000   0.5418
  -2.750   0.7151   0.03923   0.03422  -0.2017  0.6050  0.0385  -1.2427   0.0000   0.0000   0.0000   0.5355
  -1.250   1.0736   0.01749   0.01000  -0.2611  0.5793  0.0377  -1.4715   0.0000   0.0000   0.0000   0.4931
  -1.000   1.1079   0.01665   0.00892  -0.2625  0.5749  0.0370  -1.5002   0.0000   0.0000   0.0000   0.4863
  -0.750   1.1406   0.01618   0.00822  -0.2635  0.5711  0.0388  -1.5289   0.0000   0.0000   0.0000   0.4799
  -0.500   1.1717   0.01585   0.00780  -0.2641  0.5673  0.0403  -1.5566   0.0000   0.0000   0.0000   0.4738
  -0.250   1.2011   0.01558   0.00752  -0.2645  0.5631  0.0430  -1.5847   0.0000   0.0000   0.0000   0.4681
   0.000   1.2317   0.01539   0.00728  -0.2651  0.5595  0.0463  -1.6142   0.0000   0.0000   0.0000   0.4626
   0.250   1.2617   0.01529   0.00715  -0.2655  0.5557  0.0514  -1.6433   0.0000   0.0000   0.0000   0.4574
   0.500   1.2906   0.01517   0.00708  -0.2659  0.5513  0.0589  -1.6717   0.0000   0.0000   0.0000   0.4525
   0.750   1.3218   0.01503   0.00699  -0.2666  0.5477  0.0874  -1.7019   0.0000   0.0000   0.0000   0.4478
   1.000   1.3521   0.01495   0.00722  -0.2674  0.5441  0.2432  -1.7315   0.0000   0.0000   0.0000   0.4433
   1.250   1.3787   0.01504   0.00736  -0.2672  0.5401  0.2807  -1.7587   0.0000   0.0000   0.0000   0.4389
   1.500   1.4067   0.01513   0.00747  -0.2674  0.5367  0.3225  -1.7882   0.0000   0.0000   0.0000   0.4347
   1.750   1.4353   0.01518   0.00766  -0.2678  0.5333  0.3938  -1.8179   0.0000   0.0000   0.0000   0.4307
   2.000   1.4622   0.01495   0.00808  -0.2678  0.5292  0.7003  -1.8484   0.0000   0.0000   0.0000   0.4268
   2.250   1.4812   0.01473   0.00808  -0.2657  0.5257  1.0000  -1.8738   0.0000   0.0000   0.0000   0.4226
   2.500   1.5093   0.01497   0.00819  -0.2658  0.5225  1.0000  -1.9060   0.0000   0.0000   0.0000   0.4189
   2.750   1.5341   0.01517   0.00836  -0.2653  0.5184  1.0000  -1.9353   0.0000   0.0000   0.0000   0.4152
   3.000   1.5606   0.01538   0.00850  -0.2652  0.5149  1.0000  -1.9664   0.0000   0.0000   0.0000   0.4117
   3.500   1.6124   0.01585   0.00887  -0.2646  0.5079  1.0000  -2.0275   0.0000   0.0000   0.0000   0.4050
   3.750   1.6379   0.01607   0.00904  -0.2643  0.5043  1.0000  -2.0579   0.0000   0.0000   0.0000   0.4017
   4.000   1.6654   0.01632   0.00919  -0.2643  0.5012  1.0000  -2.0903   0.0000   0.0000   0.0000   0.3986
   4.250   1.6883   0.01656   0.00946  -0.2635  0.4973  1.0000  -2.1184   0.0000   0.0000   0.0000   0.3955
   4.500   1.7127   0.01679   0.00967  -0.2630  0.4936  1.0000  -2.1481   0.0000   0.0000   0.0000   0.3925
   4.750   1.7394   0.01704   0.00985  -0.2629  0.4905  1.0000  -2.1799   0.0000   0.0000   0.0000   0.3896
   5.000   1.7622   0.01731   0.01015  -0.2621  0.4868  1.0000  -2.2079   0.0000   0.0000   0.0000   0.3867
   5.250   1.7856   0.01756   0.01041  -0.2614  0.4832  1.0000  -2.2398   0.0000   0.0000   0.0000   0.3839
   5.500   1.8113   0.01783   0.01062  -0.2612  0.4801  1.0000  -2.2747   0.0000   0.0000   0.0000   0.3812
   5.750   1.8342   0.01812   0.01094  -0.2605  0.4767  1.0000  -2.3070   0.0000   0.0000   0.0000   0.3785
   6.000   1.8563   0.01840   0.01125  -0.2596  0.4731  1.0000  -2.3385   0.0000   0.0000   0.0000   0.3758
   6.250   1.8809   0.01868   0.01150  -0.2592  0.4700  1.0000  -2.3726   0.0000   0.0000   0.0000   0.3733
   6.500   1.9051   0.01901   0.01182  -0.2587  0.4669  1.0000  -2.4062   0.0000   0.0000   0.0000   0.3708
   6.750   1.9247   0.01932   0.01220  -0.2574  0.4632  1.0000  -2.4359   0.0000   0.0000   0.0000   0.3682
   7.000   1.9474   0.01961   0.01248  -0.2567  0.4598  1.0000  -2.4705   0.0000   0.0000   0.0000   0.3658
   7.250   1.9718   0.01995   0.01279  -0.2563  0.4567  1.0000  -2.5067   0.0000   0.0000   0.0000   0.3634
   7.500   1.9881   0.02029   0.01324  -0.2543  0.4528  1.0000  -2.5350   0.0000   0.0000   0.0000   0.3609
   7.750   2.0085   0.02061   0.01357  -0.2532  0.4494  1.0000  -2.5676   0.0000   0.0000   0.0000   0.3585
   8.000   2.0323   0.02096   0.01390  -0.2528  0.4463  1.0000  -2.6034   0.0000   0.0000   0.0000   0.3562
   8.250   2.0451   0.02135   0.01441  -0.2502  0.4426  1.0000  -2.6283   0.0000   0.0000   0.0000   0.3537
   8.500   2.0641   0.02172   0.01481  -0.2488  0.4394  1.0000  -2.6594   0.0000   0.0000   0.0000   0.3514
   8.750   2.0893   0.02208   0.01513  -0.2487  0.4366  1.0000  -2.6967   0.0000   0.0000   0.0000   0.3493
   9.000   2.1006   0.02257   0.01575  -0.2459  0.4331  1.0000  -2.7198   0.0000   0.0000   0.0000   0.3468
   9.250   2.1164   0.02301   0.01624  -0.2441  0.4296  1.0000  -2.7478   0.0000   0.0000   0.0000   0.3445
   9.500   2.1390   0.02338   0.01660  -0.2435  0.4265  1.0000  -2.7827   0.0000   0.0000   0.0000   0.3425
   9.750   2.1499   0.02396   0.01730  -0.2408  0.4229  1.0000  -2.8054   0.0000   0.0000   0.0000   0.3401
  10.000   2.1642   0.02449   0.01791  -0.2388  0.4195  1.0000  -2.8442   0.0000   0.0000   0.0000   0.3379
  10.250   2.1853   0.02492   0.01833  -0.2380  0.4165  1.0000  -2.9083   0.0000   0.0000   0.0000   0.3359
  10.500   2.1954   0.02558   0.01911  -0.2353  0.4128  1.0000  -2.9598   0.0000   0.0000   0.0000   0.3336
  10.750   2.2046   0.02623   0.01983  -0.2325  0.4084  1.0000  -3.0106   0.0000   0.0000   0.0000   0.3313
  11.000   2.2176   0.02682   0.02044  -0.2304  0.4040  1.0000  -3.0674   0.0000   0.0000   0.0000   0.3292
  11.250   2.2184   0.02777   0.02152  -0.2264  0.3989  1.0000  -3.1060   0.0000   0.0000   0.0000   0.3268
  11.500   2.2307   0.02844   0.02220  -0.2244  0.3944  1.0000  -3.1705   0.0000   0.0000   0.0000   0.3247
  11.750   2.2310   0.02960   0.02352  -0.2207  0.3895  1.0000  -3.2185   0.0000   0.0000   0.0000   0.3224
  12.000   2.2435   0.03038   0.02431  -0.2188  0.3857  1.0000  -3.2930   0.0000   0.0000   0.0000   0.3204
  12.250   2.2475   0.03159   0.02566  -0.2159  0.3815  1.0000  -3.3529   0.0000   0.0000   0.0000   0.3184
  12.500   2.2529   0.03275   0.02690  -0.2133  0.3770  1.0000  -3.4161   0.0000   0.0000   0.0000   0.3164
  12.750   2.2583   0.03402   0.02825  -0.2109  0.3726  1.0000  -3.4793   0.0000   0.0000   0.0000   0.3144
  13.000   2.2599   0.03554   0.02989  -0.2081  0.3679  1.0000  -3.5375   0.0000   0.0000   0.0000   0.3125
  13.250   2.2669   0.03684   0.03123  -0.2061  0.3636  1.0000  -3.6107   0.0000   0.0000   0.0000   0.3107
  13.500   2.2652   0.03877   0.03331  -0.2033  0.3587  1.0000  -3.6650   0.0000   0.0000   0.0000   0.3089
  13.750   2.2709   0.04027   0.03484  -0.2014  0.3541  1.0000  -3.7364   0.0000   0.0000   0.0000   0.3071
  14.000   2.2655   0.04273   0.03746  -0.1987  0.3486  1.0000  -3.7825   0.0000   0.0000   0.0000   0.3055
  14.250   2.2667   0.04477   0.03956  -0.1968  0.3435  1.0000  -3.8529   0.0000   0.0000   0.0000   0.3039
  14.500   2.2623   0.04742   0.04234  -0.1946  0.3379  1.0000  -3.9184   0.0000   0.0000   0.0000   0.3025
  14.750   2.2603   0.04997   0.04498  -0.1928  0.3325  1.0000  -3.9909   0.0000   0.0000   0.0000   0.3010
  15.000   2.2571   0.05272   0.04782  -0.1911  0.3269  1.0000  -4.0606   0.0000   0.0000   0.0000   0.2997
  15.250   2.2506   0.05598   0.05122  -0.1895  0.3209  1.0000  -4.1203   0.0000   0.0000   0.0000   0.2985
  15.500   2.2476   0.05891   0.05419  -0.1881  0.3152  1.0000  -4.1909   0.0000   0.0000   0.0000   0.2972
  15.750   2.2385   0.06271   0.05812  -0.1867  0.3086  1.0000  -4.2472   0.0000   0.0000   0.0000   0.2962
  16.000   2.2304   0.06649   0.06202  -0.1856  0.3022  1.0000  -4.3084   0.0000   0.0000   0.0000   0.2953
  16.250   2.2229   0.07025   0.06584  -0.1845  0.2956  1.0000  -4.3719   0.0000   0.0000   0.0000   0.2943
  16.500   2.2124   0.07452   0.07019  -0.1836  0.2884  1.0000  -4.4252   0.0000   0.0000   0.0000   0.2936
  16.750   2.1997   0.07923   0.07501  -0.1830  0.2806  1.0000  -4.4704   0.0000   0.0000   0.0000   0.2930
  17.000   2.1866   0.08407   0.07995  -0.1824  0.2726  1.0000  -4.5240   0.0000   0.0000   0.0000   0.2924
  17.250   2.1730   0.08907   0.08503  -0.1821  0.2641  1.0000  -4.5992   0.0000   0.0000   0.0000   0.2920
  17.500   2.1589   0.09421   0.09023  -0.1820  0.2553  1.0000  -4.6710   0.0000   0.0000   0.0000   0.2917
  17.750   2.1443   0.09947   0.09555  -0.1820  0.2459  1.0000  -4.7435   0.0000   0.0000   0.0000   0.2915
  18.000   2.1287   0.10495   0.10108  -0.1823  0.2358  1.0000  -4.8079   0.0000   0.0000   0.0000   0.2915
  18.250   2.1127   0.11049   0.10663  -0.1828  0.2252  1.0000  -4.8684   0.0000   0.0000   0.0000   0.2916
  18.500   2.0964   0.11614   0.11230  -0.1836  0.2140  1.0000  -4.9236   0.0000   0.0000   0.0000   0.2919
  18.750   2.0799   0.12184   0.11802  -0.1846  0.2020  1.0000  -4.9746   0.0000   0.0000   0.0000   0.2922
  19.250   2.0479   0.13310   0.12924  -0.1872  0.1781  1.0000  -5.0729   0.0000   0.0000   0.0000   0.2933
  19.500   2.0327   0.13859   0.13470  -0.1888  0.1671  1.0000  -5.1224   0.0000   0.0000   0.0000   0.2940
  19.750   2.0196   0.14377   0.13983  -0.1905  0.1572  1.0000  -5.1821   0.0000   0.0000   0.0000   0.2947
  20.000   2.0089   0.14855   0.14460  -0.1922  0.1478  1.0000  -5.2554   0.0000   0.0000   0.0000   0.2952
  20.250   1.9998   0.15306   0.14911  -0.1939  0.1395  1.0000  -5.3369   0.0000   0.0000   0.0000   0.2957
  20.500   1.9922   0.15732   0.15336  -0.1956  0.1319  1.0000  -5.4279   0.0000   0.0000   0.0000   0.2962
  20.750   1.9859   0.16137   0.15742  -0.1974  0.1248  1.0000  -5.5263   0.0000   0.0000   0.0000   0.2966
  21.000   1.9803   0.16530   0.16134  -0.1992  0.1184  1.0000  -5.6287   0.0000   0.0000   0.0000   0.2969
  21.250   1.9752   0.16912   0.16516  -0.2011  0.1124  1.0000  -5.7348   0.0000   0.0000   0.0000   0.2973
  22.250   1.9619   0.18322   0.17936  -0.2088  0.0908  1.0000  -6.2047   0.0000   0.0000   0.0000   0.2986
  22.500   1.9592   0.18656   0.18272  -0.2108  0.0861  1.0000  -6.3267   0.0000   0.0000   0.0000   0.2989
  22.750   1.9561   0.18998   0.18614  -0.2129  0.0818  1.0000  -6.4451   0.0000   0.0000   0.0000   0.2993
  23.000   1.9539   0.19333   0.18953  -0.2151  0.0772  1.0000  -6.5702   0.0000   0.0000   0.0000   0.2997
  23.250   1.9520   0.19656   0.19280  -0.2172  0.0730  1.0000  -6.6980   0.0000   0.0000   0.0000   0.3000
  23.500   1.9499   0.19979   0.19607  -0.2194  0.0690  1.0000  -6.8237   0.0000   0.0000   0.0000   0.3004
  23.750   1.9478   0.20302   0.19932  -0.2217  0.0653  1.0000  -6.9493   0.0000   0.0000   0.0000   0.3008
  24.000   1.9455   0.20624   0.20254  -0.2241  0.0619  1.0000  -7.0742   0.0000   0.0000   0.0000   0.3013
  24.250   1.9440   0.20939   0.20576  -0.2264  0.0584  1.0000  -7.2050   0.0000   0.0000   0.0000   0.3016
  24.500   1.9426   0.21243   0.20886  -0.2288  0.0552  1.0000  -7.3443   0.0000   0.0000   0.0000   0.3020
  24.750   1.9408   0.21555   0.21200  -0.2312  0.0523  1.0000  -7.4801   0.0000   0.0000   0.0000   0.3025
  25.000   1.9389   0.21867   0.21514  -0.2337  0.0496  1.0000  -7.6148   0.0000   0.0000   0.0000   0.3030


