xflr5 v6.59

 Calculated polar for: TKV2008

 1 1 Reynolds number fixed          Mach number fixed         

 xtrf =   1.000 (top)        1.000 (bottom)
 Mach =   0.000     Re =     0.280 e 6     Ncrit =   9.000

  alpha     CL        CD       CDp       Cm    Top Xtr Bot Xtr   Cpmin    Chinge    XCp    
 ------- -------- --------- --------- -------- ------- ------- -------- --------- ---------
 -25.000  -0.4661   0.26879   0.26510   0.0029  1.0000  0.0107  -1.3293   0.0000   0.0000   0.0000   0.2147
 -24.750  -0.4588   0.26671   0.26303   0.0014  1.0000  0.0108  -1.3155   0.0000   0.0000   0.0000   0.2115
 -24.500  -0.4514   0.26460   0.26093  -0.0001  1.0000  0.0110  -1.3074   0.0000   0.0000   0.0000   0.2082
 -24.250  -0.4441   0.26247   0.25881  -0.0016  1.0000  0.0111  -1.3002   0.0000   0.0000   0.0000   0.2048
 -24.000  -0.4367   0.26033   0.25667  -0.0031  1.0000  0.0113  -1.2934   0.0000   0.0000   0.0000   0.2013
 -23.750  -0.4293   0.25817   0.25452  -0.0046  1.0000  0.0114  -1.2868   0.0000   0.0000   0.0000   0.1978
 -23.500  -0.4219   0.25600   0.25235  -0.0060  1.0000  0.0115  -1.2805   0.0000   0.0000   0.0000   0.1941
 -23.250  -0.4145   0.25381   0.25017  -0.0074  1.0000  0.0117  -1.2792   0.0000   0.0000   0.0000   0.1904
 -23.000  -0.4071   0.25160   0.24798  -0.0088  1.0000  0.0118  -1.2824   0.0000   0.0000   0.0000   0.1865
 -22.750  -0.3996   0.24939   0.24577  -0.0101  1.0000  0.0118  -1.2868   0.0000   0.0000   0.0000   0.1825
 -22.500  -0.3922   0.24717   0.24355  -0.0115  1.0000  0.0119  -1.2924   0.0000   0.0000   0.0000   0.1784
 -21.500  -0.3628   0.23821   0.23464  -0.0167  1.0000  0.0120  -1.3102   0.0000   0.0000   0.0000   0.1609
 -21.250  -0.3555   0.23603   0.23247  -0.0178  1.0000  0.0121  -1.2860   0.0000   0.0000   0.0000   0.1567
 -21.000  -0.3483   0.23385   0.23031  -0.0189  1.0000  0.0122  -1.2680   0.0000   0.0000   0.0000   0.1522
 -20.750  -0.3410   0.23174   0.22821  -0.0201  1.0000  0.0124  -1.2535   0.0000   0.0000   0.0000   0.1475
 -20.500  -0.3337   0.22958   0.22607  -0.0212  1.0000  0.0125  -1.2443   0.0000   0.0000   0.0000   0.1427
 -20.250  -0.3265   0.22738   0.22388  -0.0222  1.0000  0.0126  -1.2406   0.0000   0.0000   0.0000   0.1377
 -20.000  -0.3193   0.22519   0.22170  -0.0233  1.0000  0.0127  -1.2377   0.0000   0.0000   0.0000   0.1327
 -19.750  -0.3121   0.22301   0.21954  -0.0243  1.0000  0.0129  -1.2354   0.0000   0.0000   0.0000   0.1274
 -19.500  -0.3050   0.22079   0.21734  -0.0253  1.0000  0.0130  -1.2337   0.0000   0.0000   0.0000   0.1221
 -19.250  -0.2980   0.21857   0.21513  -0.0262  1.0000  0.0132  -1.2326   0.0000   0.0000   0.0000   0.1166
 -19.000  -0.2911   0.21633   0.21291  -0.0271  1.0000  0.0133  -1.2324   0.0000   0.0000   0.0000   0.1110
 -18.750  -0.2842   0.21411   0.21070  -0.0280  1.0000  0.0134  -1.2336   0.0000   0.0000   0.0000   0.1053
 -18.500  -0.2773   0.21187   0.20848  -0.0288  1.0000  0.0135  -1.2369   0.0000   0.0000   0.0000   0.0994
 -18.250  -0.2706   0.20962   0.20625  -0.0297  1.0000  0.0136  -1.2429   0.0000   0.0000   0.0000   0.0934
 -17.500  -0.2515   0.20296   0.19966  -0.0319  1.0000  0.0138  -1.2538   0.0000   0.0000   0.0000   0.0750
 -17.250  -0.2453   0.20082   0.19754  -0.0323  1.0000  0.0139  -1.2334   0.0000   0.0000   0.0000   0.0695
 -17.000  -0.2393   0.19873   0.19547  -0.0328  1.0000  0.0140  -1.2222   0.0000   0.0000   0.0000   0.0638
 -16.750  -0.2334   0.19664   0.19341  -0.0333  1.0000  0.0141  -1.2155   0.0000   0.0000   0.0000   0.0580
 -16.500  -0.2277   0.19456   0.19136  -0.0337  1.0000  0.0143  -1.2112   0.0000   0.0000   0.0000   0.0524
 -16.250  -0.2223   0.19250   0.18933  -0.0340  1.0000  0.0144  -1.2087   0.0000   0.0000   0.0000   0.0471
 -16.000  -0.2173   0.19046   0.18732  -0.0342  1.0000  0.0146  -1.2075   0.0000   0.0000   0.0000   0.0421
 -15.750  -0.2125   0.18845   0.18534  -0.0344  1.0000  0.0147  -1.2076   0.0000   0.0000   0.0000   0.0377
 -15.500  -0.2083   0.18648   0.18341  -0.0344  1.0000  0.0149  -1.2092   0.0000   0.0000   0.0000   0.0341
 -15.250  -0.2046   0.18459   0.18155  -0.0344  1.0000  0.0151  -1.2127   0.0000   0.0000   0.0000   0.0317
 -15.000  -0.1990   0.18247   0.17946  -0.0349  0.9998  0.0152  -1.2181   0.0000   0.0000   0.0000   0.0238
 -14.750  -0.1774   0.17856   0.17554  -0.0401  0.9977  0.0154  -1.2246   0.0000   0.0000   0.0000  -0.0332
 -14.250  -0.1358   0.17082   0.16779  -0.0500  0.9931  0.0155  -1.2287   0.0000   0.0000   0.0000  -0.1933
 -14.000  -0.1144   0.16713   0.16408  -0.0547  0.9912  0.0157  -1.1824   0.0000   0.0000   0.0000  -0.3174
 -13.750  -0.0941   0.16340   0.16035  -0.0591  0.9882  0.0160  -1.1516   0.0000   0.0000   0.0000  -0.4862
 -13.500  -0.0731   0.15968   0.15662  -0.0638  0.9860  0.0163  -1.1329   0.0000   0.0000   0.0000  -0.7624
 -13.250  -0.0532   0.15591   0.15285  -0.0681  0.9831  0.0167  -1.1295   0.0000   0.0000   0.0000  -1.2226
 -13.000  -0.0330   0.15212   0.14906  -0.0726  0.9803  0.0170  -1.1323   0.0000   0.0000   0.0000  -2.2572
 -12.750  -0.0131   0.14831   0.14524  -0.0771  0.9775  0.0172  -1.1463   0.0000   0.0000   0.0000  -6.4116
 -12.250   0.0242   0.14079   0.13771  -0.0852  0.9695  0.0174  -1.1723   0.0000   0.0000   0.0000   4.1889
 -12.000   0.0447   0.13705   0.13398  -0.0892  0.9661  0.0176  -1.1299   0.0000   0.0000   0.0000   2.4723
 -11.500   0.0730   0.13051   0.12746  -0.0937  0.9479  0.0181  -1.0970   0.0000   0.0000   0.0000   1.6689
 -11.250   0.0828   0.12766   0.12461  -0.0947  0.9318  0.0184  -1.0919   0.0000   0.0000   0.0000   1.5098
 -11.000   0.0965   0.12446   0.12141  -0.0969  0.9174  0.0188  -1.0907   0.0000   0.0000   0.0000   1.3522
 -10.250   0.1754   0.11168   0.10848  -0.1143  0.8864  0.0196  -1.0559   0.0000   0.0000   0.0000   0.9562
 -10.000   0.2174   0.10651   0.10321  -0.1244  0.8767  0.0204  -1.0291   0.0000   0.0000   0.0000   0.8673
  -9.750   0.2672   0.10086   0.09741  -0.1375  0.8647  0.0211  -1.0529   0.0000   0.0000   0.0000   0.8022
  -9.500   0.3211   0.09520   0.09154  -0.1512  0.8476  0.0214  -1.0325   0.0000   0.0000   0.0000   0.7533
  -9.250   0.3570   0.09142   0.08751  -0.1591  0.8212  0.0220  -0.9892   0.0000   0.0000   0.0000   0.7250
  -9.000   0.3755   0.08895   0.08483  -0.1622  0.7976  0.0225  -0.9882   0.0000   0.0000   0.0000   0.7094
  -8.750   0.3873   0.08690   0.08264  -0.1636  0.7790  0.0230  -0.9969   0.0000   0.0000   0.0000   0.6984
  -8.500   0.3960   0.08506   0.08068  -0.1649  0.7644  0.0233  -1.0488   0.0000   0.0000   0.0000   0.6912
  -8.250   0.4065   0.08304   0.07857  -0.1651  0.7519  0.0235  -1.0145   0.0000   0.0000   0.0000   0.6798
  -8.000   0.4165   0.08124   0.07670  -0.1653  0.7407  0.0239  -1.0210   0.0000   0.0000   0.0000   0.6693
  -7.750   0.4255   0.07948   0.07489  -0.1656  0.7305  0.0244  -1.0295   0.0000   0.0000   0.0000   0.6602
  -7.500   0.4342   0.07771   0.07307  -0.1659  0.7215  0.0250  -1.0372   0.0000   0.0000   0.0000   0.6522
  -7.250   0.4414   0.07595   0.07125  -0.1667  0.7136  0.0254  -1.0421   0.0000   0.0000   0.0000   0.6468
  -7.000   0.4497   0.07411   0.06939  -0.1666  0.7054  0.0257  -1.0501   0.0000   0.0000   0.0000   0.6385
  -6.750   0.4595   0.07240   0.06765  -0.1666  0.6983  0.0262  -1.0596   0.0000   0.0000   0.0000   0.6294
  -6.500   0.4682   0.07073   0.06594  -0.1667  0.6916  0.0268  -1.0673   0.0000   0.0000   0.0000   0.6220
  -6.250   0.4731   0.06910   0.06431  -0.1669  0.6852  0.0277  -1.0713   0.0000   0.0000   0.0000   0.6179
  -6.000   0.4810   0.06736   0.06254  -0.1667  0.6793  0.0281  -1.0797   0.0000   0.0000   0.0000   0.6106
  -5.750   0.4886   0.06584   0.06102  -0.1661  0.6734  0.0288  -1.0883   0.0000   0.0000   0.0000   0.6031
  -5.500   0.4933   0.06444   0.05962  -0.1655  0.6678  0.0296  -1.0938   0.0000   0.0000   0.0000   0.5978
  -5.250   0.4993   0.06274   0.05791  -0.1677  0.6629  0.0302  -1.0952   0.0000   0.0000   0.0000   0.5975
  -5.000   0.5106   0.06101   0.05618  -0.1667  0.6573  0.0306  -1.1078   0.0000   0.0000   0.0000   0.5871
  -4.750   0.5246   0.05927   0.05438  -0.1679  0.6529  0.0315  -1.1191   0.0000   0.0000   0.0000   0.5798
  -4.500   0.5368   0.05719   0.05234  -0.1713  0.6474  0.0327  -1.1241   0.0000   0.0000   0.0000   0.5780
  -4.250   0.5512   0.05534   0.05046  -0.1717  0.6427  0.0332  -1.1368   0.0000   0.0000   0.0000   0.5697
  -4.000   0.5678   0.05352   0.04862  -0.1735  0.6380  0.0344  -1.1498   0.0000   0.0000   0.0000   0.5629
  -3.750   0.5906   0.05088   0.04597  -0.1789  0.6332  0.0357  -1.1622   0.0000   0.0000   0.0000   0.5594
  -3.500   0.6121   0.04905   0.04407  -0.1809  0.6293  0.0370  -1.1797   0.0000   0.0000   0.0000   0.5513
  -3.250   0.6407   0.04627   0.04129  -0.1870  0.6245  0.0387  -1.1960   0.0000   0.0000   0.0000   0.5468
  -3.000   0.6770   0.04332   0.03827  -0.1945  0.6200  0.0416  -1.2175   0.0000   0.0000   0.0000   0.5415
  -2.500   0.7627   0.03718   0.03195  -0.2109  0.6110  0.0482  -1.2695   0.0000   0.0000   0.0000   0.5292
  -2.250   0.8088   0.03433   0.02895  -0.2186  0.6068  0.0521  -1.2998   0.0000   0.0000   0.0000   0.5224
  -2.000   0.8764   0.03021   0.02454  -0.2319  0.6025  0.0600  -1.3409   0.0000   0.0000   0.0000   0.5161
  -1.250   1.0688   0.01900   0.01150  -0.2606  0.5896  0.0436  -1.4662   0.0000   0.0000   0.0000   0.4937
  -1.000   1.1071   0.01788   0.00995  -0.2627  0.5852  0.0418  -1.4968   0.0000   0.0000   0.0000   0.4867
  -0.750   1.1410   0.01739   0.00922  -0.2640  0.5815  0.0433  -1.5262   0.0000   0.0000   0.0000   0.4803
  -0.500   1.1715   0.01697   0.00864  -0.2644  0.5772  0.0445  -1.5530   0.0000   0.0000   0.0000   0.4742
  -0.250   1.2013   0.01669   0.00833  -0.2648  0.5730  0.0478  -1.5816   0.0000   0.0000   0.0000   0.4684
   0.000   1.2334   0.01647   0.00806  -0.2657  0.5697  0.0512  -1.6120   0.0000   0.0000   0.0000   0.4629
   0.250   1.2619   0.01631   0.00798  -0.2660  0.5654  0.0569  -1.6397   0.0000   0.0000   0.0000   0.4578
   0.500   1.2920   0.01620   0.00788  -0.2665  0.5612  0.0664  -1.6688   0.0000   0.0000   0.0000   0.4528
   0.750   1.3271   0.01591   0.00784  -0.2683  0.5577  0.1796  -1.7016   0.0000   0.0000   0.0000   0.4482
   1.000   1.3528   0.01599   0.00807  -0.2679  0.5533  0.2614  -1.7277   0.0000   0.0000   0.0000   0.4437
   1.500   1.4099   0.01619   0.00832  -0.2685  0.5464  0.3558  -1.7866   0.0000   0.0000   0.0000   0.4351
   2.000   1.4577   0.01575   0.00891  -0.2669  0.5386  0.8708  -1.8410   0.0000   0.0000   0.0000   0.4269
   2.250   1.4837   0.01586   0.00889  -0.2665  0.5353  1.0000  -1.8716   0.0000   0.0000   0.0000   0.4229
   2.500   1.5091   0.01610   0.00908  -0.2661  0.5313  1.0000  -1.9012   0.0000   0.0000   0.0000   0.4192
   2.750   1.5352   0.01632   0.00922  -0.2659  0.5274  1.0000  -1.9317   0.0000   0.0000   0.0000   0.4155
   3.000   1.5635   0.01656   0.00933  -0.2660  0.5242  1.0000  -1.9642   0.0000   0.0000   0.0000   0.4120
   3.250   1.5888   0.01683   0.00957  -0.2657  0.5206  1.0000  -1.9939   0.0000   0.0000   0.0000   0.4086
   3.500   1.6139   0.01707   0.00978  -0.2652  0.5167  1.0000  -2.0236   0.0000   0.0000   0.0000   0.4053
   3.750   1.6413   0.01731   0.00993  -0.2653  0.5134  1.0000  -2.0557   0.0000   0.0000   0.0000   0.4021
   4.000   1.6665   0.01759   0.01018  -0.2649  0.5099  1.0000  -2.0856   0.0000   0.0000   0.0000   0.3989
   4.250   1.6903   0.01784   0.01045  -0.2643  0.5059  1.0000  -2.1143   0.0000   0.0000   0.0000   0.3958
   4.500   1.7169   0.01809   0.01062  -0.2642  0.5026  1.0000  -2.1459   0.0000   0.0000   0.0000   0.3929
   4.750   1.7419   0.01838   0.01089  -0.2638  0.4992  1.0000  -2.1759   0.0000   0.0000   0.0000   0.3900
   5.000   1.7645   0.01866   0.01121  -0.2630  0.4952  1.0000  -2.2040   0.0000   0.0000   0.0000   0.3871
   5.250   1.7903   0.01892   0.01142  -0.2628  0.4920  1.0000  -2.2388   0.0000   0.0000   0.0000   0.3843
   5.500   1.8162   0.01922   0.01169  -0.2626  0.4888  1.0000  -2.2737   0.0000   0.0000   0.0000   0.3816
   5.750   1.8368   0.01953   0.01207  -0.2614  0.4849  1.0000  -2.3036   0.0000   0.0000   0.0000   0.3789
   6.000   1.8615   0.01981   0.01233  -0.2610  0.4816  1.0000  -2.3375   0.0000   0.0000   0.0000   0.3763
   6.250   1.8894   0.02012   0.01257  -0.2613  0.4788  1.0000  -2.3745   0.0000   0.0000   0.0000   0.3738
   6.500   1.9075   0.02048   0.01305  -0.2597  0.4749  1.0000  -2.4020   0.0000   0.0000   0.0000   0.3712
   6.750   1.9305   0.02079   0.01337  -0.2590  0.4715  1.0000  -2.4352   0.0000   0.0000   0.0000   0.3687
   7.000   1.9578   0.02108   0.01360  -0.2592  0.4686  1.0000  -2.4742   0.0000   0.0000   0.0000   0.3664
   7.250   1.9748   0.02148   0.01411  -0.2574  0.4647  1.0000  -2.5028   0.0000   0.0000   0.0000   0.3638
   7.500   1.9960   0.02182   0.01448  -0.2564  0.4611  1.0000  -2.5358   0.0000   0.0000   0.0000   0.3614
   7.750   2.0226   0.02212   0.01473  -0.2565  0.4581  1.0000  -2.5743   0.0000   0.0000   0.0000   0.3592
   8.000   2.0382   0.02256   0.01529  -0.2545  0.4542  1.0000  -2.6017   0.0000   0.0000   0.0000   0.3568
   8.250   2.0572   0.02294   0.01572  -0.2531  0.4506  1.0000  -2.6326   0.0000   0.0000   0.0000   0.3544
   8.500   2.0829   0.02327   0.01601  -0.2530  0.4476  1.0000  -2.6704   0.0000   0.0000   0.0000   0.3523
   8.750   2.0981   0.02376   0.01661  -0.2510  0.4442  1.0000  -2.6972   0.0000   0.0000   0.0000   0.3499
   9.000   2.1135   0.02420   0.01714  -0.2490  0.4407  1.0000  -2.7243   0.0000   0.0000   0.0000   0.3476
   9.250   2.1368   0.02455   0.01748  -0.2486  0.4377  1.0000  -2.7598   0.0000   0.0000   0.0000   0.3455
   9.500   2.1516   0.02505   0.01806  -0.2465  0.4343  1.0000  -2.7865   0.0000   0.0000   0.0000   0.3432
   9.750   2.1619   0.02559   0.01870  -0.2437  0.4305  1.0000  -2.8087   0.0000   0.0000   0.0000   0.3408
  10.000   2.1836   0.02597   0.01910  -0.2429  0.4274  1.0000  -2.8642   0.0000   0.0000   0.0000   0.3388
  10.250   2.2003   0.02652   0.01972  -0.2414  0.4243  1.0000  -2.9250   0.0000   0.0000   0.0000   0.3367
  10.500   2.2072   0.02722   0.02055  -0.2381  0.4206  1.0000  -2.9718   0.0000   0.0000   0.0000   0.3343
  10.750   2.2257   0.02763   0.02097  -0.2368  0.4169  1.0000  -3.0364   0.0000   0.0000   0.0000   0.3323
  11.000   2.2301   0.02840   0.02185  -0.2332  0.4125  1.0000  -3.0802   0.0000   0.0000   0.0000   0.3299
  11.250   2.2366   0.02906   0.02257  -0.2300  0.4076  1.0000  -3.1280   0.0000   0.0000   0.0000   0.3275
  11.500   2.2419   0.02987   0.02346  -0.2267  0.4028  1.0000  -3.1851   0.0000   0.0000   0.0000   0.3253
  11.750   2.2449   0.03081   0.02450  -0.2232  0.3978  1.0000  -3.2388   0.0000   0.0000   0.0000   0.3230
  12.000   2.2560   0.03158   0.02532  -0.2211  0.3937  1.0000  -3.3116   0.0000   0.0000   0.0000   0.3209
  12.250   2.2561   0.03286   0.02675  -0.2175  0.3894  1.0000  -3.3643   0.0000   0.0000   0.0000   0.3187
  12.500   2.2707   0.03354   0.02744  -0.2160  0.3855  1.0000  -3.4458   0.0000   0.0000   0.0000   0.3168
  12.750   2.2661   0.03519   0.02927  -0.2121  0.3807  1.0000  -3.4895   0.0000   0.0000   0.0000   0.3147
  13.000   2.2727   0.03632   0.03045  -0.2098  0.3762  1.0000  -3.5593   0.0000   0.0000   0.0000   0.3128
  13.250   2.2718   0.03799   0.03226  -0.2068  0.3717  1.0000  -3.6158   0.0000   0.0000   0.0000   0.3109
  13.500   2.2735   0.03958   0.03393  -0.2042  0.3670  1.0000  -3.6780   0.0000   0.0000   0.0000   0.3090
  13.750   2.2745   0.04132   0.03578  -0.2018  0.3624  1.0000  -3.7388   0.0000   0.0000   0.0000   0.3072
  14.000   2.2720   0.04337   0.03794  -0.1992  0.3573  1.0000  -3.7921   0.0000   0.0000   0.0000   0.3055
  14.250   2.2700   0.04555   0.04022  -0.1968  0.3522  1.0000  -3.8564   0.0000   0.0000   0.0000   0.3039
  14.500   2.2666   0.04793   0.04270  -0.1946  0.3467  1.0000  -3.9252   0.0000   0.0000   0.0000   0.3023
  14.750   2.2599   0.05079   0.04570  -0.1924  0.3412  1.0000  -3.9844   0.0000   0.0000   0.0000   0.3009
  15.000   2.2607   0.05301   0.04796  -0.1908  0.3358  1.0000  -4.0660   0.0000   0.0000   0.0000   0.2995
  15.250   2.2479   0.05680   0.05193  -0.1887  0.3298  1.0000  -4.1072   0.0000   0.0000   0.0000   0.2983
  15.500   2.2452   0.05960   0.05480  -0.1873  0.3241  1.0000  -4.1784   0.0000   0.0000   0.0000   0.2970
  15.750   2.2351   0.06338   0.05870  -0.1858  0.3178  1.0000  -4.2289   0.0000   0.0000   0.0000   0.2960
  16.000   2.2237   0.06747   0.06293  -0.1845  0.3112  1.0000  -4.2790   0.0000   0.0000   0.0000   0.2951
  16.250   2.2168   0.07109   0.06661  -0.1835  0.3048  1.0000  -4.3441   0.0000   0.0000   0.0000   0.2941
  16.500   2.2074   0.07512   0.07073  -0.1826  0.2979  1.0000  -4.4008   0.0000   0.0000   0.0000   0.2933
  16.750   2.1921   0.08013   0.07587  -0.1819  0.2903  1.0000  -4.4366   0.0000   0.0000   0.0000   0.2928
  17.000   2.1788   0.08494   0.08078  -0.1814  0.2826  1.0000  -4.4788   0.0000   0.0000   0.0000   0.2923
  17.250   2.1658   0.08981   0.08574  -0.1811  0.2744  1.0000  -4.5527   0.0000   0.0000   0.0000   0.2919
  17.500   2.1520   0.09486   0.09086  -0.1810  0.2658  1.0000  -4.6249   0.0000   0.0000   0.0000   0.2916
  17.750   2.1376   0.10006   0.09613  -0.1811  0.2568  1.0000  -4.6930   0.0000   0.0000   0.0000   0.2914
  18.000   2.1231   0.10533   0.10146  -0.1814  0.2472  1.0000  -4.7626   0.0000   0.0000   0.0000   0.2913
  18.250   2.1079   0.11077   0.10695  -0.1819  0.2370  1.0000  -4.8260   0.0000   0.0000   0.0000   0.2914
  18.500   2.0933   0.11610   0.11231  -0.1827  0.2263  1.0000  -4.8910   0.0000   0.0000   0.0000   0.2916
  18.750   2.0790   0.12142   0.11762  -0.1836  0.2152  1.0000  -4.9546   0.0000   0.0000   0.0000   0.2918
  19.000   2.0635   0.12697   0.12320  -0.1848  0.2034  1.0000  -5.0079   0.0000   0.0000   0.0000   0.2923
  19.250   2.0489   0.13235   0.12854  -0.1862  0.1916  1.0000  -5.0641   0.0000   0.0000   0.0000   0.2928
  19.500   2.0348   0.13767   0.13385  -0.1877  0.1797  1.0000  -5.1205   0.0000   0.0000   0.0000   0.2934
  19.750   2.0219   0.14280   0.13894  -0.1894  0.1686  1.0000  -5.1816   0.0000   0.0000   0.0000   0.2940
  20.000   2.0103   0.14767   0.14376  -0.1911  0.1587  1.0000  -5.2495   0.0000   0.0000   0.0000   0.2946
  20.250   2.0006   0.15225   0.14831  -0.1929  0.1496  1.0000  -5.3275   0.0000   0.0000   0.0000   0.2952
  20.500   1.9927   0.15654   0.15258  -0.1946  0.1412  1.0000  -5.4154   0.0000   0.0000   0.0000   0.2956
  20.750   1.9860   0.16061   0.15664  -0.1964  0.1336  1.0000  -5.5114   0.0000   0.0000   0.0000   0.2960
  21.000   1.9804   0.16451   0.16054  -0.1982  0.1264  1.0000  -5.6136   0.0000   0.0000   0.0000   0.2964
  21.250   1.9756   0.16828   0.16429  -0.2000  0.1199  1.0000  -5.7211   0.0000   0.0000   0.0000   0.2968
  21.500   1.9714   0.17193   0.16795  -0.2019  0.1138  1.0000  -5.8325   0.0000   0.0000   0.0000   0.2971
  21.750   1.9680   0.17550   0.17156  -0.2038  0.1078  1.0000  -5.9482   0.0000   0.0000   0.0000   0.2974
  22.000   1.9651   0.17890   0.17498  -0.2057  0.1023  1.0000  -6.0683   0.0000   0.0000   0.0000   0.2977
  22.250   1.9625   0.18224   0.17835  -0.2076  0.0972  1.0000  -6.1904   0.0000   0.0000   0.0000   0.2980
  22.500   1.9601   0.18550   0.18162  -0.2096  0.0924  1.0000  -6.3142   0.0000   0.0000   0.0000   0.2982
  22.750   1.9579   0.18875   0.18485  -0.2116  0.0878  1.0000  -6.4409   0.0000   0.0000   0.0000   0.2985
  23.000   1.9556   0.19209   0.18825  -0.2137  0.0831  1.0000  -6.5640   0.0000   0.0000   0.0000   0.2989
  23.250   1.9536   0.19531   0.19153  -0.2159  0.0787  1.0000  -6.6900   0.0000   0.0000   0.0000   0.2992
  23.500   1.9518   0.19849   0.19473  -0.2181  0.0746  1.0000  -6.8178   0.0000   0.0000   0.0000   0.2996
  23.750   1.9500   0.20162   0.19785  -0.2203  0.0709  1.0000  -6.9465   0.0000   0.0000   0.0000   0.2999
  24.000   1.9480   0.20487   0.20115  -0.2226  0.0670  1.0000  -7.0728   0.0000   0.0000   0.0000   0.3003
  24.250   1.9461   0.20802   0.20437  -0.2250  0.0634  1.0000  -7.1979   0.0000   0.0000   0.0000   0.3008
  24.500   1.9443   0.21113   0.20751  -0.2274  0.0600  1.0000  -7.3282   0.0000   0.0000   0.0000   0.3012
  24.750   1.9426   0.21419   0.21059  -0.2298  0.0569  1.0000  -7.4660   0.0000   0.0000   0.0000   0.3016
  25.000   1.9406   0.21738   0.21382  -0.2324  0.0538  1.0000  -7.5989   0.0000   0.0000   0.0000   0.3021


