xflr5 v6.59

 Calculated polar for: TKV2008

 1 1 Reynolds number fixed          Mach number fixed         

 xtrf =   1.000 (top)        1.000 (bottom)
 Mach =   0.000     Re =     0.800 e 6     Ncrit =   9.000

  alpha     CL        CD       CDp       Cm    Top Xtr Bot Xtr   Cpmin    Chinge    XCp    
 ------- -------- --------- --------- -------- ------- ------- -------- --------- ---------
 -24.500  -0.4625   0.26398   0.26183   0.0038  1.0000  0.0059  -1.4546   0.0000   0.0000   0.0000   0.2175
 -24.250  -0.4554   0.26195   0.25980   0.0024  1.0000  0.0059  -1.4211   0.0000   0.0000   0.0000   0.2147
 -24.000  -0.4482   0.25994   0.25780   0.0009  1.0000  0.0060  -1.3937   0.0000   0.0000   0.0000   0.2116
 -23.750  -0.4410   0.25790   0.25576  -0.0005  1.0000  0.0060  -1.3711   0.0000   0.0000   0.0000   0.2084
 -23.500  -0.4336   0.25581   0.25368  -0.0020  1.0000  0.0061  -1.3517   0.0000   0.0000   0.0000   0.2051
 -23.250  -0.4263   0.25372   0.25159  -0.0034  1.0000  0.0062  -1.3374   0.0000   0.0000   0.0000   0.2017
 -23.000  -0.4189   0.25159   0.24946  -0.0047  1.0000  0.0063  -1.3300   0.0000   0.0000   0.0000   0.1983
 -22.750  -0.4115   0.24941   0.24730  -0.0061  1.0000  0.0064  -1.3239   0.0000   0.0000   0.0000   0.1947
 -18.750  -0.2971   0.21299   0.21100  -0.0240  1.0000  0.0073  -1.4013   0.0000   0.0000   0.0000   0.1252
 -18.500  -0.2904   0.21087   0.20889  -0.0247  1.0000  0.0074  -1.3667   0.0000   0.0000   0.0000   0.1207
 -18.250  -0.2839   0.20879   0.20682  -0.0254  1.0000  0.0074  -1.3393   0.0000   0.0000   0.0000   0.1160
 -18.000  -0.2696   0.20584   0.20387  -0.0286  0.9994  0.0075  -1.3093   0.0000   0.0000   0.0000   0.0977
 -17.750  -0.2522   0.20253   0.20056  -0.0326  0.9985  0.0076  -1.2816   0.0000   0.0000   0.0000   0.0713
 -10.750   0.3178   0.10057   0.09730  -0.1600  0.7626  0.0111  -1.0117   0.0000   0.0000   0.0000   0.7918
 -10.500   0.3254   0.09866   0.09529  -0.1602  0.7433  0.0113  -1.0124   0.0000   0.0000   0.0000   0.7788
 -10.250   0.3332   0.09669   0.09324  -0.1604  0.7279  0.0115  -1.0251   0.0000   0.0000   0.0000   0.7663
  -8.000   0.4097   0.07915   0.07534  -0.1635  0.6465  0.0129  -1.0568   0.0000   0.0000   0.0000   0.6714
  -7.750   0.4178   0.07731   0.07346  -0.1636  0.6407  0.0132  -1.0567   0.0000   0.0000   0.0000   0.6628
  -7.500   0.4259   0.07535   0.07150  -0.1639  0.6350  0.0135  -1.0757   0.0000   0.0000   0.0000   0.6549
  -7.250   0.4313   0.07325   0.06938  -0.1643  0.6298  0.0137  -1.1673   0.0000   0.0000   0.0000   0.6501
  -7.000   0.4344   0.07117   0.06731  -0.1647  0.6250  0.0137  -1.2721   0.0000   0.0000   0.0000   0.6473
  -6.750   0.4449   0.06950   0.06564  -0.1641  0.6196  0.0138  -1.1764   0.0000   0.0000   0.0000   0.6359
  -6.500   0.4531   0.06798   0.06410  -0.1636  0.6148  0.0139  -1.1179   0.0000   0.0000   0.0000   0.6271
  -6.250   0.4599   0.06647   0.06260  -0.1630  0.6099  0.0141  -1.0807   0.0000   0.0000   0.0000   0.6196
  -6.000   0.4646   0.06502   0.06114  -0.1621  0.6055  0.0143  -1.0784   0.0000   0.0000   0.0000   0.6129
  -5.750   0.4675   0.06359   0.05973  -0.1608  0.6013  0.0145  -1.0837   0.0000   0.0000   0.0000   0.6071
  -5.500   0.4684   0.06221   0.05836  -0.1591  0.5972  0.0148  -1.0876   0.0000   0.0000   0.0000   0.6020
  -5.250   0.4716   0.06005   0.05620  -0.1596  0.5936  0.0154  -1.2305   0.0000   0.0000   0.0000   0.5999
  -5.000   0.4783   0.05776   0.05394  -0.1607  0.5899  0.0155  -1.3285   0.0000   0.0000   0.0000   0.5967
  -4.750   0.4885   0.05633   0.05251  -0.1601  0.5858  0.0156  -1.2446   0.0000   0.0000   0.0000   0.5877
  -4.500   0.4980   0.05482   0.05099  -0.1601  0.5820  0.0158  -1.1995   0.0000   0.0000   0.0000   0.5805
  -4.250   0.5085   0.05310   0.04928  -0.1607  0.5783  0.0162  -1.1792   0.0000   0.0000   0.0000   0.5740
  -3.500   0.5614   0.04579   0.04194  -0.1695  0.5675  0.0176  -1.2608   0.0000   0.0000   0.0000   0.5575
  -3.250   0.6194   0.03945   0.03553  -0.1861  0.5638  0.0192  -1.5239   0.0000   0.0000   0.0000   0.5551
  -3.000   0.6388   0.03831   0.03436  -0.1866  0.5601  0.0194  -1.3668   0.0000   0.0000   0.0000   0.5461
  -2.750   0.6679   0.03658   0.03258  -0.1900  0.5567  0.0198  -1.2467   0.0000   0.0000   0.0000   0.5377
  -2.250   0.9507   0.01483   0.00895  -0.2569  0.5479  0.0212  -2.0234   0.0000   0.0000   0.0000   0.5221
  -2.000   0.9875   0.01379   0.00776  -0.2593  0.5442  0.0206  -1.8886   0.0000   0.0000   0.0000   0.5138
  -1.750   1.0257   0.01277   0.00645  -0.2616  0.5403  0.0204  -1.8353   0.0000   0.0000   0.0000   0.5058
  -1.500   1.0583   0.01234   0.00575  -0.2626  0.5367  0.0212  -1.7482   0.0000   0.0000   0.0000   0.4984
  -1.250   1.0888   0.01201   0.00540  -0.2633  0.5331  0.0219  -1.5974   0.0000   0.0000   0.0000   0.4915
  -1.000   1.1192   0.01174   0.00507  -0.2638  0.5293  0.0228  -1.5165   0.0000   0.0000   0.0000   0.4849
  -0.750   1.1490   0.01156   0.00482  -0.2642  0.5255  0.0238  -1.5441   0.0000   0.0000   0.0000   0.4787
  -0.500   1.1779   0.01148   0.00469  -0.2645  0.5220  0.0252  -1.5713   0.0000   0.0000   0.0000   0.4728
  -0.250   1.2071   0.01137   0.00458  -0.2648  0.5184  0.0272  -1.5988   0.0000   0.0000   0.0000   0.4671
   0.000   1.2357   0.01131   0.00450  -0.2650  0.5150  0.0293  -1.6275   0.0000   0.0000   0.0000   0.4617
   0.250   1.2637   0.01133   0.00447  -0.2651  0.5117  0.0322  -1.6558   0.0000   0.0000   0.0000   0.4566
   0.500   1.2923   0.01126   0.00443  -0.2653  0.5082  0.0359  -1.6847   0.0000   0.0000   0.0000   0.4516
   0.750   1.3202   0.01125   0.00442  -0.2653  0.5046  0.0427  -1.7131   0.0000   0.0000   0.0000   0.4468
   1.000   1.3491   0.01116   0.00447  -0.2657  0.5011  0.1201  -1.7422   0.0000   0.0000   0.0000   0.4423
   1.250   1.3770   0.01113   0.00460  -0.2658  0.4975  0.2013  -1.7708   0.0000   0.0000   0.0000   0.4380
   1.500   1.4034   0.01120   0.00469  -0.2656  0.4939  0.2300  -1.7986   0.0000   0.0000   0.0000   0.4337
   1.750   1.4291   0.01132   0.00481  -0.2652  0.4906  0.2538  -1.8264   0.0000   0.0000   0.0000   0.4296
   2.000   1.4555   0.01139   0.00492  -0.2650  0.4873  0.2832  -1.8564   0.0000   0.0000   0.0000   0.4256
   2.500   1.5091   0.01136   0.00531  -0.2650  0.4804  0.5313  -1.9193   0.0000   0.0000   0.0000   0.4182
   2.750   1.5347   0.01127   0.00560  -0.2647  0.4770  0.7526  -1.9501   0.0000   0.0000   0.0000   0.4146
   3.250   1.5803   0.01129   0.00582  -0.2627  0.4699  1.0000  -2.0074   0.0000   0.0000   0.0000   0.4074
   3.500   1.6048   0.01147   0.00596  -0.2621  0.4665  1.0000  -2.0373   0.0000   0.0000   0.0000   0.4041
   3.750   1.6295   0.01161   0.00609  -0.2616  0.4630  1.0000  -2.0675   0.0000   0.0000   0.0000   0.4008
   4.000   1.6533   0.01181   0.00625  -0.2609  0.4597  1.0000  -2.0970   0.0000   0.0000   0.0000   0.3976
   4.250   1.6768   0.01203   0.00643  -0.2601  0.4565  1.0000  -2.1263   0.0000   0.0000   0.0000   0.3944
   4.500   1.7012   0.01218   0.00658  -0.2596  0.4531  1.0000  -2.1563   0.0000   0.0000   0.0000   0.3914
   4.750   1.7245   0.01238   0.00676  -0.2588  0.4498  1.0000  -2.1855   0.0000   0.0000   0.0000   0.3884
   5.000   1.7468   0.01265   0.00698  -0.2579  0.4468  1.0000  -2.2140   0.0000   0.0000   0.0000   0.3855
   5.250   1.7708   0.01281   0.00716  -0.2573  0.4436  1.0000  -2.2437   0.0000   0.0000   0.0000   0.3827
   5.500   1.7937   0.01301   0.00736  -0.2565  0.4404  1.0000  -2.2759   0.0000   0.0000   0.0000   0.3799
   5.750   1.8153   0.01328   0.00761  -0.2554  0.4372  1.0000  -2.3075   0.0000   0.0000   0.0000   0.3771
   6.000   1.8378   0.01350   0.00784  -0.2546  0.4338  1.0000  -2.3399   0.0000   0.0000   0.0000   0.3744
   6.250   1.8600   0.01372   0.00807  -0.2537  0.4301  1.0000  -2.3721   0.0000   0.0000   0.0000   0.3718
   6.500   1.8805   0.01403   0.00835  -0.2525  0.4267  1.0000  -2.4029   0.0000   0.0000   0.0000   0.3692
   6.750   1.9023   0.01428   0.00862  -0.2516  0.4234  1.0000  -2.4348   0.0000   0.0000   0.0000   0.3666
   7.000   1.9239   0.01453   0.00889  -0.2506  0.4201  1.0000  -2.4684   0.0000   0.0000   0.0000   0.3642
   7.250   1.9440   0.01486   0.00921  -0.2494  0.4170  1.0000  -2.5008   0.0000   0.0000   0.0000   0.3617
   7.500   1.9643   0.01518   0.00955  -0.2483  0.4140  1.0000  -2.5334   0.0000   0.0000   0.0000   0.3592
   7.750   1.9852   0.01545   0.00985  -0.2472  0.4107  1.0000  -2.5667   0.0000   0.0000   0.0000   0.3569
   8.000   2.0045   0.01581   0.01022  -0.2459  0.4075  1.0000  -2.5985   0.0000   0.0000   0.0000   0.3545
   8.250   2.0230   0.01621   0.01062  -0.2445  0.4044  1.0000  -2.6294   0.0000   0.0000   0.0000   0.3522
   8.500   2.0434   0.01651   0.01098  -0.2435  0.4011  1.0000  -2.6622   0.0000   0.0000   0.0000   0.3499
   8.750   2.0622   0.01689   0.01138  -0.2421  0.3979  1.0000  -2.6935   0.0000   0.0000   0.0000   0.3476
   9.000   2.0788   0.01739   0.01188  -0.2405  0.3949  1.0000  -2.7226   0.0000   0.0000   0.0000   0.3453
   9.250   2.0983   0.01773   0.01228  -0.2393  0.3914  1.0000  -2.7546   0.0000   0.0000   0.0000   0.3432
   9.500   2.1149   0.01820   0.01277  -0.2377  0.3872  1.0000  -2.7839   0.0000   0.0000   0.0000   0.3410
   9.750   2.1306   0.01872   0.01332  -0.2360  0.3829  1.0000  -2.8124   0.0000   0.0000   0.0000   0.3388
  10.000   2.1472   0.01921   0.01385  -0.2344  0.3783  1.0000  -2.8416   0.0000   0.0000   0.0000   0.3366
  10.250   2.1606   0.01988   0.01452  -0.2324  0.3743  1.0000  -2.8884   0.0000   0.0000   0.0000   0.3344
  10.500   2.1775   0.02037   0.01508  -0.2310  0.3697  1.0000  -2.9497   0.0000   0.0000   0.0000   0.3324
  10.750   2.1896   0.02113   0.01585  -0.2289  0.3654  1.0000  -3.0045   0.0000   0.0000   0.0000   0.3303
  11.000   2.2048   0.02174   0.01652  -0.2273  0.3607  1.0000  -3.0641   0.0000   0.0000   0.0000   0.3282
  11.250   2.2163   0.02258   0.01738  -0.2252  0.3563  1.0000  -3.1183   0.0000   0.0000   0.0000   0.3262
  11.500   2.2294   0.02334   0.01820  -0.2234  0.3518  1.0000  -3.1810   0.0000   0.0000   0.0000   0.3242
  11.750   2.2409   0.02423   0.01913  -0.2215  0.3474  1.0000  -3.2506   0.0000   0.0000   0.0000   0.3222
  12.000   2.2515   0.02521   0.02015  -0.2195  0.3433  1.0000  -3.3231   0.0000   0.0000   0.0000   0.3203
  12.250   2.2621   0.02622   0.02121  -0.2176  0.3382  1.0000  -3.3960   0.0000   0.0000   0.0000   0.3184
  12.500   2.2704   0.02742   0.02246  -0.2155  0.3332  1.0000  -3.4650   0.0000   0.0000   0.0000   0.3165
  12.750   2.2786   0.02867   0.02376  -0.2135  0.3277  1.0000  -3.5351   0.0000   0.0000   0.0000   0.3146
  13.000   2.2863   0.03003   0.02517  -0.2116  0.3227  1.0000  -3.6096   0.0000   0.0000   0.0000   0.3128
  13.250   2.2919   0.03159   0.02678  -0.2095  0.3175  1.0000  -3.6803   0.0000   0.0000   0.0000   0.3111
  13.500   2.2988   0.03312   0.02837  -0.2078  0.3124  1.0000  -3.7541   0.0000   0.0000   0.0000   0.3094
  13.750   2.3016   0.03506   0.03034  -0.2057  0.3071  1.0000  -3.8190   0.0000   0.0000   0.0000   0.3077
  14.000   2.3068   0.03685   0.03221  -0.2040  0.3015  1.0000  -3.9028   0.0000   0.0000   0.0000   0.3061
  14.250   2.3070   0.03917   0.03457  -0.2020  0.2959  1.0000  -3.9821   0.0000   0.0000   0.0000   0.3046
  14.500   2.3079   0.04152   0.03697  -0.2002  0.2892  1.0000  -4.0639   0.0000   0.0000   0.0000   0.3031
  14.750   2.3074   0.04407   0.03958  -0.1985  0.2825  1.0000  -4.1428   0.0000   0.0000   0.0000   0.3017
  15.000   2.3038   0.04703   0.04259  -0.1968  0.2757  1.0000  -4.2196   0.0000   0.0000   0.0000   0.3003
  15.250   2.2973   0.05040   0.04600  -0.1950  0.2682  1.0000  -4.2878   0.0000   0.0000   0.0000   0.2991
  15.500   2.2881   0.05420   0.04983  -0.1933  0.2600  1.0000  -4.3476   0.0000   0.0000   0.0000   0.2980
  16.000   2.2642   0.06279   0.05850  -0.1903  0.2415  1.0000  -4.4492   0.0000   0.0000   0.0000   0.2960
  16.250   2.2490   0.06767   0.06342  -0.1890  0.2304  1.0000  -4.4890   0.0000   0.0000   0.0000   0.2953
  16.500   2.2301   0.07317   0.06893  -0.1879  0.2193  1.0000  -4.5162   0.0000   0.0000   0.0000   0.2947
  16.750   2.2087   0.07914   0.07491  -0.1870  0.2084  1.0000  -4.5343   0.0000   0.0000   0.0000   0.2943
  17.000   2.1881   0.08516   0.08095  -0.1863  0.1966  1.0000  -4.5666   0.0000   0.0000   0.0000   0.2941
  17.250   2.1666   0.09139   0.08719  -0.1859  0.1845  1.0000  -4.6061   0.0000   0.0000   0.0000   0.2939
  17.500   2.1434   0.09801   0.09380  -0.1858  0.1727  1.0000  -4.6338   0.0000   0.0000   0.0000   0.2940
  17.750   2.1228   0.10432   0.10011  -0.1860  0.1613  1.0000  -4.6720   0.0000   0.0000   0.0000   0.2942
  18.000   2.1034   0.11049   0.10629  -0.1864  0.1512  1.0000  -4.7136   0.0000   0.0000   0.0000   0.2944
  18.250   2.0868   0.11628   0.11208  -0.1871  0.1422  1.0000  -4.7679   0.0000   0.0000   0.0000   0.2947
  18.500   2.0736   0.12155   0.11736  -0.1878  0.1343  1.0000  -4.8390   0.0000   0.0000   0.0000   0.2948
  18.750   2.0629   0.12644   0.12227  -0.1887  0.1265  1.0000  -4.9232   0.0000   0.0000   0.0000   0.2950
  19.000   2.0527   0.13125   0.12709  -0.1897  0.1197  1.0000  -5.0083   0.0000   0.0000   0.0000   0.2951
  19.250   2.0434   0.13589   0.13175  -0.1909  0.1134  1.0000  -5.0976   0.0000   0.0000   0.0000   0.2953
  19.750   2.0299   0.14436   0.14026  -0.1933  0.1012  1.0000  -5.3049   0.0000   0.0000   0.0000   0.2956
  20.000   2.0246   0.14835   0.14427  -0.1946  0.0958  1.0000  -5.4170   0.0000   0.0000   0.0000   0.2957
  20.250   2.0200   0.15220   0.14814  -0.1960  0.0906  1.0000  -5.5333   0.0000   0.0000   0.0000   0.2958
  20.500   2.0156   0.15600   0.15196  -0.1975  0.0856  1.0000  -5.6511   0.0000   0.0000   0.0000   0.2959
  20.750   2.0112   0.15977   0.15575  -0.1990  0.0811  1.0000  -5.7683   0.0000   0.0000   0.0000   0.2961
  21.000   2.0073   0.16346   0.15946  -0.2006  0.0764  1.0000  -5.8887   0.0000   0.0000   0.0000   0.2962
  21.250   2.0036   0.16706   0.16308  -0.2022  0.0721  1.0000  -6.0111   0.0000   0.0000   0.0000   0.2964
  21.500   2.0014   0.17045   0.16649  -0.2038  0.0677  1.0000  -6.1439   0.0000   0.0000   0.0000   0.2965
  21.750   1.9982   0.17396   0.17002  -0.2056  0.0635  1.0000  -6.2695   0.0000   0.0000   0.0000   0.2967
  22.000   1.9956   0.17737   0.17345  -0.2074  0.0595  1.0000  -6.3990   0.0000   0.0000   0.0000   0.2969
  22.250   1.9933   0.18069   0.17679  -0.2092  0.0559  1.0000  -6.5314   0.0000   0.0000   0.0000   0.2971
  22.500   1.9904   0.18410   0.18022  -0.2111  0.0526  1.0000  -6.6594   0.0000   0.0000   0.0000   0.2973
  22.750   1.9881   0.18739   0.18353  -0.2131  0.0495  1.0000  -6.7912   0.0000   0.0000   0.0000   0.2976
  23.000   1.9874   0.19039   0.18657  -0.2149  0.0464  1.0000  -6.9424   0.0000   0.0000   0.0000   0.2976
  23.250   1.9858   0.19354   0.18975  -0.2168  0.0437  1.0000  -7.0896   0.0000   0.0000   0.0000   0.2978
  23.500   1.9845   0.19661   0.19286  -0.2188  0.0412  1.0000  -7.2396   0.0000   0.0000   0.0000   0.2980
  23.750   1.9822   0.19984   0.19611  -0.2210  0.0389  1.0000  -7.3811   0.0000   0.0000   0.0000   0.2983
  24.000   1.9815   0.20278   0.19909  -0.2230  0.0366  1.0000  -7.5375   0.0000   0.0000   0.0000   0.2985
  24.250   1.9804   0.20577   0.20212  -0.2251  0.0343  1.0000  -7.6910   0.0000   0.0000   0.0000   0.2987
  24.500   1.9787   0.20885   0.20523  -0.2273  0.0322  1.0000  -7.8381   0.0000   0.0000   0.0000   0.2990
  24.750   1.9772   0.21187   0.20828  -0.2296  0.0301  1.0000  -7.9878   0.0000   0.0000   0.0000   0.2993
  25.000   1.9755   0.21488   0.21133  -0.2319  0.0282  1.0000  -8.1351   0.0000   0.0000   0.0000   0.2996


