xflr5 v6.59

 Calculated polar for: TKV2008

 1 1 Reynolds number fixed          Mach number fixed         

 xtrf =   1.000 (top)        1.000 (bottom)
 Mach =   0.000     Re =     0.360 e 6     Ncrit =   9.000

  alpha     CL        CD       CDp       Cm    Top Xtr Bot Xtr   Cpmin    Chinge    XCp    
 ------- -------- --------- --------- -------- ------- ------- -------- --------- ---------
 -25.000  -0.4687   0.26887   0.26563   0.0039  1.0000  0.0092  -1.3372   0.0000   0.0000   0.0000   0.2170
 -24.750  -0.4614   0.26677   0.26354   0.0023  1.0000  0.0093  -1.3239   0.0000   0.0000   0.0000   0.2139
 -24.500  -0.4540   0.26466   0.26142   0.0008  1.0000  0.0094  -1.3141   0.0000   0.0000   0.0000   0.2106
 -24.250  -0.4467   0.26252   0.25929  -0.0007  1.0000  0.0096  -1.3077   0.0000   0.0000   0.0000   0.2073
 -24.000  -0.4393   0.26036   0.25714  -0.0022  1.0000  0.0097  -1.3014   0.0000   0.0000   0.0000   0.2039
 -23.750  -0.4320   0.25819   0.25498  -0.0036  1.0000  0.0098  -1.2949   0.0000   0.0000   0.0000   0.2004
 -23.500  -0.4246   0.25601   0.25280  -0.0050  1.0000  0.0100  -1.2888   0.0000   0.0000   0.0000   0.1968
 -23.250  -0.4172   0.25381   0.25061  -0.0064  1.0000  0.0101  -1.2861   0.0000   0.0000   0.0000   0.1931
 -23.000  -0.4097   0.25159   0.24840  -0.0078  1.0000  0.0102  -1.2904   0.0000   0.0000   0.0000   0.1894
 -22.750  -0.4023   0.24937   0.24618  -0.0092  1.0000  0.0102  -1.2958   0.0000   0.0000   0.0000   0.1855
 -22.500  -0.3949   0.24713   0.24395  -0.0105  1.0000  0.0103  -1.3024   0.0000   0.0000   0.0000   0.1815
 -22.250  -0.3874   0.24485   0.24168  -0.0118  1.0000  0.0103  -1.3106   0.0000   0.0000   0.0000   0.1774
 -21.250  -0.3582   0.23583   0.23270  -0.0169  1.0000  0.0104  -1.3237   0.0000   0.0000   0.0000   0.1599
 -21.000  -0.3510   0.23366   0.23055  -0.0180  1.0000  0.0105  -1.2970   0.0000   0.0000   0.0000   0.1557
 -20.750  -0.3438   0.23154   0.22844  -0.0191  1.0000  0.0106  -1.2762   0.0000   0.0000   0.0000   0.1513
 -20.500  -0.3366   0.22938   0.22629  -0.0202  1.0000  0.0107  -1.2607   0.0000   0.0000   0.0000   0.1466
 -20.250  -0.3293   0.22724   0.22416  -0.0213  1.0000  0.0108  -1.2544   0.0000   0.0000   0.0000   0.1418
 -20.000  -0.3221   0.22506   0.22200  -0.0223  1.0000  0.0109  -1.2500   0.0000   0.0000   0.0000   0.1369
 -19.750  -0.3150   0.22286   0.21981  -0.0233  1.0000  0.0110  -1.2466   0.0000   0.0000   0.0000   0.1318
 -19.500  -0.3079   0.22062   0.21758  -0.0243  1.0000  0.0112  -1.2438   0.0000   0.0000   0.0000   0.1267
 -17.000  -0.2425   0.19836   0.19550  -0.0320  1.0000  0.0120  -1.2916   0.0000   0.0000   0.0000   0.0697
 -16.750  -0.2367   0.19624   0.19340  -0.0323  1.0000  0.0121  -1.2643   0.0000   0.0000   0.0000   0.0649
 -16.500  -0.2311   0.19419   0.19138  -0.0326  1.0000  0.0122  -1.2476   0.0000   0.0000   0.0000   0.0599
 -16.250  -0.2258   0.19216   0.18937  -0.0329  1.0000  0.0123  -1.2375   0.0000   0.0000   0.0000   0.0551
 -16.000  -0.2208   0.19017   0.18740  -0.0331  1.0000  0.0124  -1.2308   0.0000   0.0000   0.0000   0.0507
 -15.750  -0.2163   0.18821   0.18548  -0.0332  1.0000  0.0126  -1.2264   0.0000   0.0000   0.0000   0.0469
 -15.500  -0.2047   0.18545   0.18273  -0.0354  0.9993  0.0127  -1.2187   0.0000   0.0000   0.0000   0.0253
 -15.250  -0.1841   0.18174   0.17901  -0.0402  0.9976  0.0129  -1.2072   0.0000   0.0000   0.0000  -0.0259
 -15.000  -0.1637   0.17802   0.17529  -0.0450  0.9959  0.0132  -1.1981   0.0000   0.0000   0.0000  -0.0895
 -14.750  -0.1438   0.17425   0.17150  -0.0495  0.9937  0.0134  -1.1932   0.0000   0.0000   0.0000  -0.1679
 -14.500  -0.1233   0.17050   0.16775  -0.0543  0.9918  0.0136  -1.1964   0.0000   0.0000   0.0000  -0.2762
 -13.750  -0.0644   0.15911   0.15634  -0.0678  0.9857  0.0138  -1.1947   0.0000   0.0000   0.0000  -0.9677
 -13.500  -0.0458   0.15556   0.15279  -0.0716  0.9831  0.0140  -1.1590   0.0000   0.0000   0.0000  -1.5431
 -11.250   0.0932   0.12516   0.12241  -0.0974  0.9177  0.0157  -1.1369   0.0000   0.0000   0.0000   1.4003
 -11.000   0.1155   0.12131   0.11852  -0.1019  0.9053  0.0159  -1.1020   0.0000   0.0000   0.0000   1.2162
 -10.750   0.1464   0.11671   0.11386  -0.1090  0.8955  0.0163  -1.0729   0.0000   0.0000   0.0000   1.0613
 -10.500   0.1861   0.11140   0.10846  -0.1188  0.8860  0.0168  -1.0500   0.0000   0.0000   0.0000   0.9419
 -10.250   0.2351   0.10543   0.10235  -0.1319  0.8747  0.0172  -1.0888   0.0000   0.0000   0.0000   0.8550
 -10.000   0.2945   0.09916   0.09589  -0.1472  0.8585  0.0176  -1.0415   0.0000   0.0000   0.0000   0.7864
  -9.750   0.3401   0.09459   0.09102  -0.1582  0.8279  0.0182  -0.9977   0.0000   0.0000   0.0000   0.7475
  -9.500   0.3589   0.09203   0.08822  -0.1615  0.7981  0.0187  -0.9973   0.0000   0.0000   0.0000   0.7303
  -9.000   0.3893   0.08657   0.08243  -0.1596  0.7378  0.0193  -0.9669   0.0000   0.0000   0.0000   0.6841
  -8.750   0.3983   0.08460   0.08039  -0.1597  0.7270  0.0196  -0.9614   0.0000   0.0000   0.0000   0.6738
  -7.000   0.4455   0.07347   0.06897  -0.1651  0.6824  0.0215  -1.0505   0.0000   0.0000   0.0000   0.6386
  -6.750   0.4548   0.07180   0.06725  -0.1652  0.6763  0.0219  -1.0595   0.0000   0.0000   0.0000   0.6301
  -6.500   0.4624   0.07014   0.06559  -0.1650  0.6698  0.0223  -1.0666   0.0000   0.0000   0.0000   0.6228
  -6.250   0.4697   0.06841   0.06382  -0.1652  0.6645  0.0230  -1.0734   0.0000   0.0000   0.0000   0.6166
  -6.000   0.4683   0.06685   0.06230  -0.1649  0.6586  0.0233  -1.1166   0.0000   0.0000   0.0000   0.6163
  -5.750   0.4793   0.06510   0.06051  -0.1642  0.6536  0.0235  -1.0842   0.0000   0.0000   0.0000   0.6058
  -5.500   0.4850   0.06374   0.05917  -0.1632  0.6482  0.0240  -1.0918   0.0000   0.0000   0.0000   0.5988
  -5.250   0.4928   0.06217   0.05758  -0.1633  0.6432  0.0248  -1.0992   0.0000   0.0000   0.0000   0.5928
  -5.000   0.5014   0.06006   0.05546  -0.1659  0.6387  0.0256  -1.1367   0.0000   0.0000   0.0000   0.5916
  -4.750   0.5124   0.05848   0.05390  -0.1652  0.6335  0.0259  -1.1142   0.0000   0.0000   0.0000   0.5821
  -4.500   0.5267   0.05671   0.05207  -0.1665  0.6292  0.0266  -1.1255   0.0000   0.0000   0.0000   0.5751
  -4.250   0.5426   0.05429   0.04967  -0.1706  0.6245  0.0277  -1.1327   0.0000   0.0000   0.0000   0.5725
  -4.000   0.5581   0.05231   0.04769  -0.1719  0.6201  0.0281  -1.1452   0.0000   0.0000   0.0000   0.5653
  -3.750   0.5783   0.05043   0.04575  -0.1742  0.6163  0.0290  -1.1611   0.0000   0.0000   0.0000   0.5578
  -3.500   0.6071   0.04717   0.04249  -0.1816  0.6117  0.0303  -1.1754   0.0000   0.0000   0.0000   0.5547
  -3.250   0.6266   0.04556   0.04085  -0.1827  0.6075  0.0312  -1.1926   0.0000   0.0000   0.0000   0.5465
  -3.000   0.6678   0.04207   0.03726  -0.1920  0.6036  0.0331  -1.2155   0.0000   0.0000   0.0000   0.5416
  -1.250   1.0745   0.01674   0.00930  -0.2611  0.5737  0.0351  -1.4729   0.0000   0.0000   0.0000   0.4928
  -1.000   1.1096   0.01603   0.00832  -0.2626  0.5701  0.0349  -1.5027   0.0000   0.0000   0.0000   0.4860
  -0.750   1.1403   0.01563   0.00783  -0.2633  0.5660  0.0366  -1.5301   0.0000   0.0000   0.0000   0.4797
  -0.500   1.1709   0.01531   0.00735  -0.2637  0.5619  0.0382  -1.5575   0.0000   0.0000   0.0000   0.4736
  -0.250   1.2017   0.01507   0.00708  -0.2644  0.5585  0.0408  -1.5868   0.0000   0.0000   0.0000   0.4679
   0.250   1.2604   0.01475   0.00678  -0.2651  0.5503  0.0484  -1.6439   0.0000   0.0000   0.0000   0.4573
   0.500   1.2908   0.01469   0.00668  -0.2657  0.5468  0.0557  -1.6738   0.0000   0.0000   0.0000   0.4523
   0.750   1.3202   0.01458   0.00666  -0.2661  0.5428  0.0764  -1.7025   0.0000   0.0000   0.0000   0.4476
   1.000   1.3503   0.01443   0.00684  -0.2669  0.5390  0.2332  -1.7320   0.0000   0.0000   0.0000   0.4432
   1.250   1.3783   0.01454   0.00694  -0.2670  0.5357  0.2714  -1.7606   0.0000   0.0000   0.0000   0.4388
   1.500   1.4056   0.01465   0.00710  -0.2670  0.5321  0.3078  -1.7891   0.0000   0.0000   0.0000   0.4346
   1.750   1.4327   0.01468   0.00727  -0.2670  0.5282  0.3675  -1.8178   0.0000   0.0000   0.0000   0.4305
   2.000   1.4620   0.01452   0.00758  -0.2676  0.5247  0.6141  -1.8503   0.0000   0.0000   0.0000   0.4267
   2.250   1.4808   0.01422   0.00771  -0.2655  0.5213  1.0000  -1.8754   0.0000   0.0000   0.0000   0.4225
   2.500   1.5065   0.01440   0.00784  -0.2652  0.5174  1.0000  -1.9056   0.0000   0.0000   0.0000   0.4187
   2.750   1.5334   0.01461   0.00794  -0.2650  0.5140  1.0000  -1.9371   0.0000   0.0000   0.0000   0.4151
   3.000   1.5605   0.01486   0.00810  -0.2650  0.5108  1.0000  -1.9686   0.0000   0.0000   0.0000   0.4116
   3.250   1.5852   0.01505   0.00828  -0.2645  0.5069  1.0000  -1.9981   0.0000   0.0000   0.0000   0.4082
   3.500   1.6111   0.01526   0.00843  -0.2642  0.5034  1.0000  -2.0289   0.0000   0.0000   0.0000   0.4048
   3.750   1.6381   0.01552   0.00860  -0.2642  0.5002  1.0000  -2.0607   0.0000   0.0000   0.0000   0.4016
   4.000   1.6614   0.01572   0.00883  -0.2634  0.4963  1.0000  -2.0891   0.0000   0.0000   0.0000   0.3984
   4.250   1.6863   0.01594   0.00901  -0.2629  0.4927  1.0000  -2.1194   0.0000   0.0000   0.0000   0.3953
   4.500   1.7131   0.01621   0.00919  -0.2629  0.4896  1.0000  -2.1513   0.0000   0.0000   0.0000   0.3924
   4.750   1.7352   0.01643   0.00946  -0.2619  0.4858  1.0000  -2.1788   0.0000   0.0000   0.0000   0.3894
   5.000   1.7593   0.01667   0.00968  -0.2614  0.4823  1.0000  -2.2083   0.0000   0.0000   0.0000   0.3865
   5.250   1.7857   0.01694   0.00988  -0.2613  0.4793  1.0000  -2.2425   0.0000   0.0000   0.0000   0.3838
   5.500   1.8072   0.01720   0.01020  -0.2602  0.4756  1.0000  -2.2734   0.0000   0.0000   0.0000   0.3810
   5.750   1.8301   0.01746   0.01046  -0.2595  0.4721  1.0000  -2.3058   0.0000   0.0000   0.0000   0.3783
   6.000   1.8552   0.01774   0.01070  -0.2592  0.4691  1.0000  -2.3404   0.0000   0.0000   0.0000   0.3757
   6.250   1.8776   0.01804   0.01104  -0.2583  0.4659  1.0000  -2.3722   0.0000   0.0000   0.0000   0.3731
   6.500   1.8987   0.01833   0.01136  -0.2573  0.4623  1.0000  -2.4030   0.0000   0.0000   0.0000   0.3705
   6.750   1.9221   0.01862   0.01162  -0.2567  0.4591  1.0000  -2.4364   0.0000   0.0000   0.0000   0.3680
   7.000   1.9439   0.01895   0.01196  -0.2558  0.4558  1.0000  -2.4701   0.0000   0.0000   0.0000   0.3655
   7.250   1.9614   0.01925   0.01233  -0.2540  0.4520  1.0000  -2.4997   0.0000   0.0000   0.0000   0.3629
   7.500   1.9824   0.01956   0.01264  -0.2530  0.4487  1.0000  -2.5329   0.0000   0.0000   0.0000   0.3605
   7.750   2.0033   0.01991   0.01300  -0.2519  0.4455  1.0000  -2.5658   0.0000   0.0000   0.0000   0.3581
   8.000   2.0186   0.02027   0.01344  -0.2498  0.4417  1.0000  -2.5933   0.0000   0.0000   0.0000   0.3556
   8.250   2.0385   0.02062   0.01380  -0.2486  0.4386  1.0000  -2.6254   0.0000   0.0000   0.0000   0.3533
   8.500   2.0614   0.02100   0.01418  -0.2481  0.4357  1.0000  -2.6604   0.0000   0.0000   0.0000   0.3511
   8.750   2.0747   0.02145   0.01473  -0.2457  0.4322  1.0000  -2.6856   0.0000   0.0000   0.0000   0.3487
   9.000   2.0924   0.02185   0.01518  -0.2441  0.4289  1.0000  -2.7155   0.0000   0.0000   0.0000   0.3464
   9.500   2.1257   0.02279   0.01622  -0.2408  0.4222  1.0000  -2.7730   0.0000   0.0000   0.0000   0.3419
   9.750   2.1414   0.02327   0.01676  -0.2390  0.4187  1.0000  -2.8008   0.0000   0.0000   0.0000   0.3397
  10.000   2.1636   0.02370   0.01717  -0.2384  0.4159  1.0000  -2.8458   0.0000   0.0000   0.0000   0.3377
  10.250   2.1738   0.02435   0.01794  -0.2357  0.4123  1.0000  -2.8939   0.0000   0.0000   0.0000   0.3354
  10.500   2.1859   0.02494   0.01860  -0.2334  0.4084  1.0000  -2.9484   0.0000   0.0000   0.0000   0.3332
  10.750   2.2012   0.02550   0.01917  -0.2317  0.4043  1.0000  -3.0082   0.0000   0.0000   0.0000   0.3311
  11.000   2.2037   0.02638   0.02018  -0.2279  0.3993  1.0000  -3.0491   0.0000   0.0000   0.0000   0.3287
  11.250   2.2171   0.02702   0.02081  -0.2260  0.3948  1.0000  -3.1067   0.0000   0.0000   0.0000   0.3266
  11.500   2.2179   0.02812   0.02207  -0.2223  0.3897  1.0000  -3.1498   0.0000   0.0000   0.0000   0.3243
  11.750   2.2293   0.02891   0.02288  -0.2202  0.3856  1.0000  -3.2178   0.0000   0.0000   0.0000   0.3223
  12.000   2.2351   0.03002   0.02411  -0.2175  0.3815  1.0000  -3.2790   0.0000   0.0000   0.0000   0.3202
  12.250   2.2421   0.03111   0.02528  -0.2151  0.3772  1.0000  -3.3447   0.0000   0.0000   0.0000   0.3182
  12.500   2.2491   0.03227   0.02651  -0.2127  0.3728  1.0000  -3.4108   0.0000   0.0000   0.0000   0.3162
  12.750   2.2517   0.03370   0.02806  -0.2100  0.3680  1.0000  -3.4686   0.0000   0.0000   0.0000   0.3143
  13.000   2.2597   0.03493   0.02932  -0.2080  0.3639  1.0000  -3.5394   0.0000   0.0000   0.0000   0.3124
  13.250   2.2599   0.03669   0.03123  -0.2054  0.3591  1.0000  -3.5978   0.0000   0.0000   0.0000   0.3106
  13.500   2.2674   0.03805   0.03260  -0.2035  0.3547  1.0000  -3.6725   0.0000   0.0000   0.0000   0.3089
  13.750   2.2637   0.04032   0.03504  -0.2009  0.3492  1.0000  -3.7224   0.0000   0.0000   0.0000   0.3072
  14.000   2.2666   0.04217   0.03693  -0.1989  0.3443  1.0000  -3.7876   0.0000   0.0000   0.0000   0.3055
  14.250   2.2631   0.04470   0.03960  -0.1967  0.3386  1.0000  -3.8452   0.0000   0.0000   0.0000   0.3040
  14.500   2.2633   0.04698   0.04196  -0.1949  0.3335  1.0000  -3.9238   0.0000   0.0000   0.0000   0.3025
  14.750   2.2601   0.04971   0.04479  -0.1931  0.3278  1.0000  -3.9929   0.0000   0.0000   0.0000   0.3011
  15.000   2.2569   0.05254   0.04773  -0.1915  0.3222  1.0000  -4.0622   0.0000   0.0000   0.0000   0.2998
  15.250   2.2542   0.05540   0.05064  -0.1900  0.3165  1.0000  -4.1332   0.0000   0.0000   0.0000   0.2985
  15.500   2.2471   0.05891   0.05429  -0.1885  0.3101  1.0000  -4.1911   0.0000   0.0000   0.0000   0.2974
  15.750   2.2414   0.06231   0.05777  -0.1873  0.3040  1.0000  -4.2602   0.0000   0.0000   0.0000   0.2963
  16.000   2.2346   0.06592   0.06144  -0.1861  0.2976  1.0000  -4.3261   0.0000   0.0000   0.0000   0.2953
  16.250   2.2244   0.07012   0.06577  -0.1851  0.2903  1.0000  -4.3804   0.0000   0.0000   0.0000   0.2945
  16.500   2.2140   0.07443   0.07017  -0.1842  0.2830  1.0000  -4.4341   0.0000   0.0000   0.0000   0.2937
  16.750   2.2026   0.07897   0.07479  -0.1835  0.2754  1.0000  -4.4837   0.0000   0.0000   0.0000   0.2931
  17.000   2.1899   0.08376   0.07965  -0.1830  0.2672  1.0000  -4.5449   0.0000   0.0000   0.0000   0.2925
  17.250   2.1762   0.08878   0.08474  -0.1826  0.2587  1.0000  -4.6201   0.0000   0.0000   0.0000   0.2921
  17.500   2.1619   0.09395   0.08996  -0.1824  0.2497  1.0000  -4.6933   0.0000   0.0000   0.0000   0.2918
  17.750   2.1464   0.09938   0.09545  -0.1825  0.2399  1.0000  -4.7613   0.0000   0.0000   0.0000   0.2917
  18.000   2.1301   0.10497   0.10109  -0.1828  0.2293  1.0000  -4.8229   0.0000   0.0000   0.0000   0.2917
  18.250   2.1131   0.11070   0.10684  -0.1833  0.2182  1.0000  -4.8772   0.0000   0.0000   0.0000   0.2918
  18.500   2.0953   0.11655   0.11267  -0.1841  0.2071  1.0000  -4.9243   0.0000   0.0000   0.0000   0.2921
  18.750   2.0789   0.12225   0.11840  -0.1851  0.1947  1.0000  -4.9759   0.0000   0.0000   0.0000   0.2925
  19.000   2.0616   0.12808   0.12420  -0.1864  0.1827  1.0000  -5.0188   0.0000   0.0000   0.0000   0.2931
  19.250   2.0458   0.13370   0.12980  -0.1878  0.1712  1.0000  -5.0673   0.0000   0.0000   0.0000   0.2937
  19.500   2.0313   0.13911   0.13519  -0.1894  0.1606  1.0000  -5.1205   0.0000   0.0000   0.0000   0.2943
  19.750   2.0184   0.14426   0.14030  -0.1910  0.1511  1.0000  -5.1816   0.0000   0.0000   0.0000   0.2950
  20.250   1.9986   0.15356   0.14957  -0.1944  0.1348  1.0000  -5.3365   0.0000   0.0000   0.0000   0.2960
  20.500   1.9915   0.15778   0.15380  -0.1962  0.1273  1.0000  -5.4301   0.0000   0.0000   0.0000   0.2965
  20.750   1.9851   0.16185   0.15787  -0.1980  0.1206  1.0000  -5.5283   0.0000   0.0000   0.0000   0.2969
  21.000   1.9801   0.16570   0.16174  -0.1997  0.1142  1.0000  -5.6351   0.0000   0.0000   0.0000   0.2972
  21.250   1.9759   0.16940   0.16546  -0.2015  0.1082  1.0000  -5.7473   0.0000   0.0000   0.0000   0.2975
  21.500   1.9719   0.17304   0.16913  -0.2034  0.1026  1.0000  -5.8607   0.0000   0.0000   0.0000   0.2979
  21.750   1.9684   0.17662   0.17272  -0.2053  0.0974  1.0000  -5.9776   0.0000   0.0000   0.0000   0.2982
  22.000   1.9651   0.18011   0.17623  -0.2072  0.0924  1.0000  -6.0956   0.0000   0.0000   0.0000   0.2985
  22.250   1.9615   0.18368   0.17980  -0.2093  0.0876  1.0000  -6.2107   0.0000   0.0000   0.0000   0.2989
  22.500   1.9590   0.18705   0.18321  -0.2113  0.0828  1.0000  -6.3341   0.0000   0.0000   0.0000   0.2992
  22.750   1.9570   0.19032   0.18652  -0.2134  0.0782  1.0000  -6.4623   0.0000   0.0000   0.0000   0.2995
  23.000   1.9546   0.19364   0.18988  -0.2155  0.0739  1.0000  -6.5860   0.0000   0.0000   0.0000   0.2999
  23.250   1.9521   0.19696   0.19321  -0.2177  0.0700  1.0000  -6.7095   0.0000   0.0000   0.0000   0.3003
  23.500   1.9497   0.20025   0.19651  -0.2200  0.0663  1.0000  -6.8329   0.0000   0.0000   0.0000   0.3007
  23.750   1.9479   0.20345   0.19976  -0.2222  0.0625  1.0000  -6.9617   0.0000   0.0000   0.0000   0.3011
  24.000   1.9465   0.20654   0.20290  -0.2245  0.0590  1.0000  -7.0938   0.0000   0.0000   0.0000   0.3014
  24.250   1.9449   0.20966   0.20605  -0.2268  0.0558  1.0000  -7.2285   0.0000   0.0000   0.0000   0.3018
  24.500   1.9425   0.21288   0.20929  -0.2293  0.0529  1.0000  -7.3599   0.0000   0.0000   0.0000   0.3023
  24.750   1.9412   0.21594   0.21240  -0.2316  0.0499  1.0000  -7.5011   0.0000   0.0000   0.0000   0.3027
  25.000   1.9402   0.21887   0.21539  -0.2340  0.0472  1.0000  -7.6444   0.0000   0.0000   0.0000   0.3030


