xflr5 v6.59

 Calculated polar for: TKV2008

 1 1 Reynolds number fixed          Mach number fixed         

 xtrf =   1.000 (top)        1.000 (bottom)
 Mach =   0.000     Re =     0.340 e 6     Ncrit =   9.000

  alpha     CL        CD       CDp       Cm    Top Xtr Bot Xtr   Cpmin    Chinge    XCp    
 ------- -------- --------- --------- -------- ------- ------- -------- --------- ---------
 -25.000  -0.4680   0.26898   0.26564   0.0036  1.0000  0.0097  -1.3248   0.0000   0.0000   0.0000   0.2166
 -24.750  -0.4607   0.26684   0.26350   0.0021  1.0000  0.0098  -1.3153   0.0000   0.0000   0.0000   0.2134
 -24.500  -0.4534   0.26467   0.26135   0.0006  1.0000  0.0099  -1.3089   0.0000   0.0000   0.0000   0.2101
 -24.250  -0.4460   0.26250   0.25918  -0.0009  1.0000  0.0101  -1.3064   0.0000   0.0000   0.0000   0.2067
 -22.500  -0.3942   0.24690   0.24363  -0.0110  1.0000  0.0104  -1.3626   0.0000   0.0000   0.0000   0.1800
 -22.250  -0.3870   0.24469   0.24143  -0.0121  1.0000  0.0104  -1.3341   0.0000   0.0000   0.0000   0.1764
 -22.000  -0.3797   0.24254   0.23929  -0.0134  1.0000  0.0105  -1.3134   0.0000   0.0000   0.0000   0.1725
 -21.750  -0.3724   0.24037   0.23713  -0.0146  1.0000  0.0106  -1.2975   0.0000   0.0000   0.0000   0.1684
 -21.500  -0.3651   0.23827   0.23505  -0.0158  1.0000  0.0107  -1.2843   0.0000   0.0000   0.0000   0.1641
 -21.250  -0.3577   0.23608   0.23286  -0.0170  1.0000  0.0108  -1.2726   0.0000   0.0000   0.0000   0.1597
 -18.000  -0.2666   0.20713   0.20410  -0.0299  1.0000  0.0120  -1.3061   0.0000   0.0000   0.0000   0.0909
 -17.750  -0.2601   0.20490   0.20189  -0.0304  1.0000  0.0121  -1.2725   0.0000   0.0000   0.0000   0.0858
 -17.500  -0.2538   0.20278   0.19979  -0.0309  1.0000  0.0122  -1.2472   0.0000   0.0000   0.0000   0.0804
 -17.250  -0.2477   0.20069   0.19772  -0.0315  1.0000  0.0123  -1.2275   0.0000   0.0000   0.0000   0.0749
 -17.000  -0.2416   0.19859   0.19565  -0.0320  1.0000  0.0124  -1.2197   0.0000   0.0000   0.0000   0.0693
 -16.750  -0.2358   0.19651   0.19359  -0.0324  1.0000  0.0126  -1.2156   0.0000   0.0000   0.0000   0.0638
 -16.500  -0.2302   0.19443   0.19153  -0.0328  1.0000  0.0127  -1.2138   0.0000   0.0000   0.0000   0.0584
 -16.250  -0.2249   0.19235   0.18948  -0.0331  1.0000  0.0129  -1.2137   0.0000   0.0000   0.0000   0.0534
 -16.000  -0.2199   0.19030   0.18746  -0.0334  1.0000  0.0130  -1.2147   0.0000   0.0000   0.0000   0.0488
 -15.750  -0.2153   0.18830   0.18548  -0.0335  1.0000  0.0132  -1.2169   0.0000   0.0000   0.0000   0.0448
 -15.500  -0.2112   0.18633   0.18355  -0.0335  1.0000  0.0133  -1.2211   0.0000   0.0000   0.0000   0.0417
 -15.250  -0.1921   0.18269   0.17990  -0.0379  0.9985  0.0135  -1.2227   0.0000   0.0000   0.0000  -0.0020
 -15.000  -0.1713   0.17890   0.17610  -0.0429  0.9967  0.0136  -1.2329   0.0000   0.0000   0.0000  -0.0617
 -14.500  -0.1313   0.17125   0.16843  -0.0525  0.9925  0.0137  -1.2562   0.0000   0.0000   0.0000  -0.2300
 -14.250  -0.1104   0.16755   0.16473  -0.0570  0.9909  0.0139  -1.2051   0.0000   0.0000   0.0000  -0.3621
 -14.000  -0.0913   0.16390   0.16108  -0.0611  0.9881  0.0140  -1.1723   0.0000   0.0000   0.0000  -0.5345
 -13.750  -0.0710   0.16024   0.15742  -0.0656  0.9861  0.0143  -1.1465   0.0000   0.0000   0.0000  -0.8220
 -13.500  -0.0512   0.15658   0.15375  -0.0699  0.9840  0.0145  -1.1302   0.0000   0.0000   0.0000  -1.3203
 -13.250  -0.0325   0.15294   0.15010  -0.0739  0.9811  0.0149  -1.1272   0.0000   0.0000   0.0000  -2.3498
 -12.750   0.0689   0.14259   0.13981  -0.0923  0.9621  0.0155  -1.0824   0.0000   0.0000   0.0000   1.7287
 -12.500   0.0854   0.13892   0.13615  -0.0954  0.9589  0.0156  -1.0378   0.0000   0.0000   0.0000   1.4780
 -12.250   0.0920   0.13623   0.13348  -0.0955  0.9462  0.0158  -1.0205   0.0000   0.0000   0.0000   1.3897
 -12.000   0.0984   0.13366   0.13091  -0.0957  0.9297  0.0160  -1.0103   0.0000   0.0000   0.0000   1.3151
 -11.750   0.1101   0.13049   0.12774  -0.0974  0.9156  0.0162  -1.0010   0.0000   0.0000   0.0000   1.2167
 -11.500   0.1290   0.12658   0.12379  -0.1013  0.9052  0.0165  -0.9917   0.0000   0.0000   0.0000   1.1053
 -11.250   0.1540   0.12204   0.11920  -0.1071  0.8964  0.0169  -0.9865   0.0000   0.0000   0.0000   1.0044
 -11.000   0.1852   0.11690   0.11399  -0.1150  0.8882  0.0172  -1.0069   0.0000   0.0000   0.0000   0.9212
 -10.750   0.2244   0.11112   0.10810  -0.1251  0.8789  0.0174  -0.9951   0.0000   0.0000   0.0000   0.8499
 -10.250   0.2182   0.10700   0.10391  -0.1267  0.8782  0.0175  -1.0680   0.0000   0.0000   0.0000   0.8771
 -10.000   0.2741   0.10109   0.09783  -0.1409  0.8640  0.0182  -1.0174   0.0000   0.0000   0.0000   0.8024
  -9.750   0.3280   0.09555   0.09203  -0.1549  0.8405  0.0190  -1.0246   0.0000   0.0000   0.0000   0.7554
  -9.250   0.3679   0.09007   0.08610  -0.1625  0.7856  0.0194  -1.0345   0.0000   0.0000   0.0000   0.7204
  -9.000   0.3783   0.08821   0.08411  -0.1630  0.7672  0.0197  -1.0072   0.0000   0.0000   0.0000   0.7082
  -8.750   0.3878   0.08639   0.08218  -0.1634  0.7525  0.0200  -0.9989   0.0000   0.0000   0.0000   0.6974
  -8.500   0.3968   0.08456   0.08027  -0.1638  0.7401  0.0204  -1.0067   0.0000   0.0000   0.0000   0.6874
  -8.250   0.4052   0.08271   0.07836  -0.1641  0.7291  0.0208  -1.0137   0.0000   0.0000   0.0000   0.6785
  -8.000   0.4125   0.08086   0.07646  -0.1647  0.7192  0.0211  -1.0443   0.0000   0.0000   0.0000   0.6717
  -7.750   0.4204   0.07896   0.07451  -0.1651  0.7105  0.0213  -1.0581   0.0000   0.0000   0.0000   0.6640
  -7.500   0.4307   0.07717   0.07265  -0.1651  0.7024  0.0216  -1.0363   0.0000   0.0000   0.0000   0.6534
  -7.250   0.4393   0.07547   0.07094  -0.1651  0.6943  0.0220  -1.0448   0.0000   0.0000   0.0000   0.6448
  -7.000   0.4480   0.07373   0.06916  -0.1653  0.6876  0.0225  -1.0527   0.0000   0.0000   0.0000   0.6369
  -6.750   0.4553   0.07197   0.06738  -0.1655  0.6808  0.0230  -1.0588   0.0000   0.0000   0.0000   0.6304
  -6.500   0.4588   0.07023   0.06563  -0.1661  0.6749  0.0233  -1.0766   0.0000   0.0000   0.0000   0.6280
  -6.250   0.4694   0.06846   0.06384  -0.1654  0.6687  0.0236  -1.0719   0.0000   0.0000   0.0000   0.6175
  -6.000   0.4777   0.06688   0.06224  -0.1651  0.6633  0.0240  -1.0809   0.0000   0.0000   0.0000   0.6098
  -5.750   0.4828   0.06537   0.06074  -0.1644  0.6575  0.0247  -1.0872   0.0000   0.0000   0.0000   0.6037
  -5.250   0.4936   0.06216   0.05753  -0.1642  0.6474  0.0258  -1.0977   0.0000   0.0000   0.0000   0.5941
  -5.000   0.5046   0.06055   0.05589  -0.1645  0.6426  0.0264  -1.1078   0.0000   0.0000   0.0000   0.5866
  -4.750   0.5157   0.05873   0.05407  -0.1657  0.6378  0.0273  -1.1160   0.0000   0.0000   0.0000   0.5812
  -4.500   0.5286   0.05644   0.05179  -0.1689  0.6329  0.0279  -1.1222   0.0000   0.0000   0.0000   0.5785
  -4.250   0.5444   0.05477   0.05005  -0.1695  0.6288  0.0285  -1.1362   0.0000   0.0000   0.0000   0.5695
  -4.000   0.5594   0.05285   0.04816  -0.1713  0.6240  0.0294  -1.1472   0.0000   0.0000   0.0000   0.5636
  -1.250   1.0591   0.01870   0.01175  -0.2585  0.5772  0.0490  -1.4656   0.0000   0.0000   0.0000   0.4939
  -1.000   1.1084   0.01640   0.00867  -0.2625  0.5731  0.0362  -1.5010   0.0000   0.0000   0.0000   0.4862
  -0.750   1.1417   0.01603   0.00803  -0.2636  0.5696  0.0381  -1.5302   0.0000   0.0000   0.0000   0.4797
  -0.500   1.1711   0.01565   0.00767  -0.2640  0.5654  0.0396  -1.5567   0.0000   0.0000   0.0000   0.4738
  -0.250   1.2011   0.01539   0.00735  -0.2644  0.5614  0.0422  -1.5853   0.0000   0.0000   0.0000   0.4680
   0.000   1.2324   0.01523   0.00713  -0.2652  0.5580  0.0455  -1.6154   0.0000   0.0000   0.0000   0.4626
   0.250   1.2610   0.01509   0.00704  -0.2654  0.5537  0.0503  -1.6433   0.0000   0.0000   0.0000   0.4574
   0.500   1.2905   0.01499   0.00695  -0.2658  0.5496  0.0577  -1.6723   0.0000   0.0000   0.0000   0.4524
   0.750   1.3224   0.01489   0.00686  -0.2667  0.5463  0.0847  -1.7030   0.0000   0.0000   0.0000   0.4477
   1.000   1.3511   0.01477   0.00709  -0.2672  0.5422  0.2398  -1.7314   0.0000   0.0000   0.0000   0.4433
   1.250   1.3783   0.01486   0.00721  -0.2671  0.5385  0.2775  -1.7592   0.0000   0.0000   0.0000   0.4389
   1.500   1.4070   0.01497   0.00732  -0.2674  0.5353  0.3177  -1.7892   0.0000   0.0000   0.0000   0.4347
   1.750   1.4340   0.01501   0.00753  -0.2674  0.5315  0.3837  -1.8175   0.0000   0.0000   0.0000   0.4306
   2.000   1.4620   0.01479   0.00791  -0.2677  0.5275  0.6710  -1.8489   0.0000   0.0000   0.0000   0.4268
   2.250   1.4815   0.01455   0.00793  -0.2657  0.5244  1.0000  -1.8749   0.0000   0.0000   0.0000   0.4226
   2.500   1.5078   0.01477   0.00808  -0.2655  0.5207  1.0000  -1.9054   0.0000   0.0000   0.0000   0.4188
   2.750   1.5336   0.01497   0.00822  -0.2652  0.5168  1.0000  -1.9357   0.0000   0.0000   0.0000   0.4152
   3.000   1.5608   0.01519   0.00834  -0.2651  0.5136  1.0000  -1.9675   0.0000   0.0000   0.0000   0.4117
   3.250   1.5871   0.01543   0.00852  -0.2650  0.5102  1.0000  -1.9983   0.0000   0.0000   0.0000   0.4083
   3.500   1.6117   0.01564   0.00872  -0.2644  0.5063  1.0000  -2.0278   0.0000   0.0000   0.0000   0.4049
   3.750   1.6379   0.01586   0.00887  -0.2642  0.5029  1.0000  -2.0589   0.0000   0.0000   0.0000   0.4017
   4.000   1.6640   0.01612   0.00907  -0.2640  0.4996  1.0000  -2.0899   0.0000   0.0000   0.0000   0.3986
   4.250   1.6873   0.01634   0.00931  -0.2633  0.4956  1.0000  -2.1184   0.0000   0.0000   0.0000   0.3954
   4.500   1.7126   0.01657   0.00949  -0.2629  0.4921  1.0000  -2.1490   0.0000   0.0000   0.0000   0.3925
   4.750   1.7387   0.01684   0.00971  -0.2627  0.4890  1.0000  -2.1801   0.0000   0.0000   0.0000   0.3896
   5.000   1.7608   0.01709   0.01000  -0.2618  0.4852  1.0000  -2.2077   0.0000   0.0000   0.0000   0.3866
   5.250   1.7852   0.01733   0.01022  -0.2613  0.4818  1.0000  -2.2404   0.0000   0.0000   0.0000   0.3838
   5.500   1.8120   0.01762   0.01044  -0.2613  0.4788  1.0000  -2.2763   0.0000   0.0000   0.0000   0.3812
   5.750   1.8323   0.01789   0.01078  -0.2600  0.4750  1.0000  -2.3061   0.0000   0.0000   0.0000   0.3784
   6.000   1.8556   0.01816   0.01105  -0.2594  0.4716  1.0000  -2.3388   0.0000   0.0000   0.0000   0.3758
   6.250   1.8814   0.01846   0.01130  -0.2592  0.4688  1.0000  -2.3741   0.0000   0.0000   0.0000   0.3733
   6.500   1.9022   0.01877   0.01168  -0.2581  0.4653  1.0000  -2.4044   0.0000   0.0000   0.0000   0.3707
   6.750   1.9234   0.01907   0.01201  -0.2570  0.4617  1.0000  -2.4357   0.0000   0.0000   0.0000   0.3681
   7.000   1.9476   0.01936   0.01226  -0.2566  0.4585  1.0000  -2.4718   0.0000   0.0000   0.0000   0.3657
   7.250   1.9676   0.01971   0.01266  -0.2554  0.4550  1.0000  -2.5036   0.0000   0.0000   0.0000   0.3632
   7.500   1.9856   0.02003   0.01304  -0.2537  0.4513  1.0000  -2.5337   0.0000   0.0000   0.0000   0.3607
   7.750   2.0079   0.02035   0.01333  -0.2530  0.4481  1.0000  -2.5682   0.0000   0.0000   0.0000   0.3584
   8.000   2.0260   0.02072   0.01376  -0.2514  0.4447  1.0000  -2.5984   0.0000   0.0000   0.0000   0.3560
   8.250   2.0420   0.02110   0.01421  -0.2495  0.4411  1.0000  -2.6265   0.0000   0.0000   0.0000   0.3535
   8.500   2.0631   0.02145   0.01457  -0.2485  0.4381  1.0000  -2.6597   0.0000   0.0000   0.0000   0.3513
   8.750   2.0839   0.02186   0.01500  -0.2476  0.4351  1.0000  -2.6924   0.0000   0.0000   0.0000   0.3491
   9.000   2.0967   0.02233   0.01557  -0.2451  0.4315  1.0000  -2.7173   0.0000   0.0000   0.0000   0.3466
   9.250   2.1151   0.02273   0.01600  -0.2437  0.4282  1.0000  -2.7479   0.0000   0.0000   0.0000   0.3444
   9.500   2.1362   0.02316   0.01643  -0.2429  0.4251  1.0000  -2.7813   0.0000   0.0000   0.0000   0.3423
   9.750   2.1459   0.02373   0.01713  -0.2400  0.4214  1.0000  -2.8026   0.0000   0.0000   0.0000   0.3399
  10.000   2.1629   0.02421   0.01766  -0.2385  0.4182  1.0000  -2.8434   0.0000   0.0000   0.0000   0.3378
  10.250   2.1862   0.02464   0.01806  -0.2381  0.4153  1.0000  -2.9105   0.0000   0.0000   0.0000   0.3359
  10.500   2.1908   0.02538   0.01897  -0.2344  0.4112  1.0000  -2.9540   0.0000   0.0000   0.0000   0.3334
  10.750   2.2037   0.02594   0.01956  -0.2323  0.4070  1.0000  -3.0101   0.0000   0.0000   0.0000   0.3312
  11.000   2.2109   0.02671   0.02042  -0.2293  0.4024  1.0000  -3.0582   0.0000   0.0000   0.0000   0.3290
  11.250   2.2168   0.02752   0.02130  -0.2261  0.3974  1.0000  -3.1046   0.0000   0.0000   0.0000   0.3267
  11.500   2.2245   0.02838   0.02223  -0.2234  0.3928  1.0000  -3.1601   0.0000   0.0000   0.0000   0.3245
  11.750   2.2294   0.02939   0.02333  -0.2204  0.3881  1.0000  -3.2164   0.0000   0.0000   0.0000   0.3223
  12.000   2.2438   0.03012   0.02407  -0.2188  0.3844  1.0000  -3.2945   0.0000   0.0000   0.0000   0.3204
  12.250   2.2447   0.03146   0.02558  -0.2155  0.3799  1.0000  -3.3482   0.0000   0.0000   0.0000   0.3183
  12.500   2.2536   0.03247   0.02662  -0.2134  0.3757  1.0000  -3.4184   0.0000   0.0000   0.0000   0.3163
  12.750   2.2548   0.03396   0.02825  -0.2104  0.3709  1.0000  -3.4733   0.0000   0.0000   0.0000   0.3143
  13.000   2.2599   0.03531   0.02967  -0.2081  0.3665  1.0000  -3.5383   0.0000   0.0000   0.0000   0.3125
  13.250   2.2631   0.03687   0.03133  -0.2057  0.3620  1.0000  -3.6033   0.0000   0.0000   0.0000   0.3106
  13.500   2.2649   0.03858   0.03314  -0.2033  0.3573  1.0000  -3.6654   0.0000   0.0000   0.0000   0.3089
  13.750   2.2669   0.04039   0.03503  -0.2011  0.3524  1.0000  -3.7281   0.0000   0.0000   0.0000   0.3072
  14.000   2.2657   0.04254   0.03728  -0.1988  0.3471  1.0000  -3.7838   0.0000   0.0000   0.0000   0.3055
  14.250   2.2643   0.04484   0.03969  -0.1967  0.3418  1.0000  -3.8470   0.0000   0.0000   0.0000   0.3040
  14.500   2.2638   0.04714   0.04206  -0.1948  0.3364  1.0000  -3.9237   0.0000   0.0000   0.0000   0.3025
  14.750   2.2593   0.04997   0.04502  -0.1929  0.3308  1.0000  -3.9889   0.0000   0.0000   0.0000   0.3011
  15.000   2.2594   0.05238   0.04746  -0.1913  0.3255  1.0000  -4.0683   0.0000   0.0000   0.0000   0.2997
  15.250   2.2512   0.05585   0.05110  -0.1896  0.3193  1.0000  -4.1229   0.0000   0.0000   0.0000   0.2985
  15.500   2.2464   0.05903   0.05436  -0.1882  0.3134  1.0000  -4.1879   0.0000   0.0000   0.0000   0.2973
  15.750   2.2406   0.06241   0.05781  -0.1869  0.3072  1.0000  -4.2555   0.0000   0.0000   0.0000   0.2962
  16.000   2.2315   0.06634   0.06188  -0.1858  0.3005  1.0000  -4.3133   0.0000   0.0000   0.0000   0.2953
  16.250   2.2228   0.07030   0.06593  -0.1847  0.2938  1.0000  -4.3726   0.0000   0.0000   0.0000   0.2944
  16.500   2.2133   0.07445   0.07014  -0.1838  0.2866  1.0000  -4.4291   0.0000   0.0000   0.0000   0.2936
  16.750   2.2016   0.07899   0.07476  -0.1831  0.2790  1.0000  -4.4782   0.0000   0.0000   0.0000   0.2930
  17.000   2.1880   0.08391   0.07979  -0.1826  0.2708  1.0000  -4.5326   0.0000   0.0000   0.0000   0.2925
  17.250   2.1741   0.08896   0.08491  -0.1823  0.2622  1.0000  -4.6066   0.0000   0.0000   0.0000   0.2921
  17.500   2.1600   0.09411   0.09012  -0.1821  0.2533  1.0000  -4.6791   0.0000   0.0000   0.0000   0.2918
  17.750   2.1451   0.09941   0.09548  -0.1822  0.2439  1.0000  -4.7503   0.0000   0.0000   0.0000   0.2916
  18.000   2.1293   0.10492   0.10103  -0.1825  0.2338  1.0000  -4.8138   0.0000   0.0000   0.0000   0.2916
  18.250   2.1132   0.11051   0.10666  -0.1830  0.2229  1.0000  -4.8734   0.0000   0.0000   0.0000   0.2917
  18.500   2.0963   0.11625   0.11241  -0.1838  0.2114  1.0000  -4.9257   0.0000   0.0000   0.0000   0.2919
  18.750   2.0793   0.12201   0.11817  -0.1848  0.1996  1.0000  -4.9736   0.0000   0.0000   0.0000   0.2923
  19.000   2.0633   0.12765   0.12380  -0.1860  0.1877  1.0000  -5.0243   0.0000   0.0000   0.0000   0.2928
  19.250   2.0470   0.13333   0.12945  -0.1874  0.1758  1.0000  -5.0700   0.0000   0.0000   0.0000   0.2935
  19.500   2.0320   0.13880   0.13489  -0.1890  0.1650  1.0000  -5.1206   0.0000   0.0000   0.0000   0.2941
  19.750   2.0196   0.14387   0.13994  -0.1906  0.1549  1.0000  -5.1849   0.0000   0.0000   0.0000   0.2947
  20.000   2.0088   0.14868   0.14473  -0.1924  0.1459  1.0000  -5.2569   0.0000   0.0000   0.0000   0.2953
  20.250   1.9996   0.15320   0.14924  -0.1941  0.1378  1.0000  -5.3384   0.0000   0.0000   0.0000   0.2958
  20.500   1.9922   0.15744   0.15348  -0.1958  0.1302  1.0000  -5.4303   0.0000   0.0000   0.0000   0.2962
  20.750   1.9859   0.16149   0.15754  -0.1976  0.1233  1.0000  -5.5290   0.0000   0.0000   0.0000   0.2966
  21.000   1.9805   0.16539   0.16144  -0.1994  0.1169  1.0000  -5.6331   0.0000   0.0000   0.0000   0.2970
  21.250   1.9757   0.16918   0.16524  -0.2012  0.1109  1.0000  -5.7409   0.0000   0.0000   0.0000   0.2974
  21.500   1.9714   0.17289   0.16896  -0.2031  0.1052  1.0000  -5.8518   0.0000   0.0000   0.0000   0.2977
  21.750   1.9673   0.17653   0.17258  -0.2051  0.1000  1.0000  -5.9638   0.0000   0.0000   0.0000   0.2981
  22.000   1.9644   0.17998   0.17608  -0.2070  0.0947  1.0000  -6.0846   0.0000   0.0000   0.0000   0.2984
  22.250   1.9618   0.18338   0.17952  -0.2089  0.0896  1.0000  -6.2072   0.0000   0.0000   0.0000   0.2987
  22.500   1.9593   0.18673   0.18290  -0.2110  0.0849  1.0000  -6.3308   0.0000   0.0000   0.0000   0.2990
  22.750   1.9567   0.19007   0.18626  -0.2131  0.0804  1.0000  -6.4528   0.0000   0.0000   0.0000   0.2994
  23.000   1.9538   0.19349   0.18969  -0.2153  0.0762  1.0000  -6.5728   0.0000   0.0000   0.0000   0.2998
  23.250   1.9516   0.19677   0.19300  -0.2174  0.0721  1.0000  -6.6986   0.0000   0.0000   0.0000   0.3002
  23.500   1.9498   0.19997   0.19625  -0.2196  0.0680  1.0000  -6.8270   0.0000   0.0000   0.0000   0.3005
  23.750   1.9479   0.20316   0.19947  -0.2219  0.0643  1.0000  -6.9545   0.0000   0.0000   0.0000   0.3009
  24.000   1.9460   0.20633   0.20267  -0.2242  0.0609  1.0000  -7.0819   0.0000   0.0000   0.0000   0.3013
  24.250   1.9437   0.20957   0.20592  -0.2266  0.0576  1.0000  -7.2083   0.0000   0.0000   0.0000   0.3018
  24.500   1.9425   0.21263   0.20905  -0.2290  0.0544  1.0000  -7.3487   0.0000   0.0000   0.0000   0.3021
  24.750   1.9411   0.21565   0.21212  -0.2313  0.0514  1.0000  -7.4887   0.0000   0.0000   0.0000   0.3025
  25.000   1.9392   0.21877   0.21526  -0.2338  0.0488  1.0000  -7.6235   0.0000   0.0000   0.0000   0.3030


