xflr5 v6.59

 Calculated polar for: TKV2008

 1 1 Reynolds number fixed          Mach number fixed         

 xtrf =   1.000 (top)        1.000 (bottom)
 Mach =   0.000     Re =     0.440 e 6     Ncrit =   9.000

  alpha     CL        CD       CDp       Cm    Top Xtr Bot Xtr   Cpmin    Chinge    XCp    
 ------- -------- --------- --------- -------- ------- ------- -------- --------- ---------
 -25.000  -0.4707   0.26904   0.26611   0.0046  1.0000  0.0084  -1.3349   0.0000   0.0000   0.0000   0.2189
 -24.750  -0.4634   0.26687   0.26394   0.0031  1.0000  0.0085  -1.3279   0.0000   0.0000   0.0000   0.2158
 -24.500  -0.4561   0.26468   0.26177   0.0016  1.0000  0.0086  -1.3232   0.0000   0.0000   0.0000   0.2125
 -24.250  -0.4487   0.26248   0.25956   0.0001  1.0000  0.0087  -1.3249   0.0000   0.0000   0.0000   0.2092
 -22.750  -0.4045   0.24893   0.24606  -0.0085  1.0000  0.0088  -1.3705   0.0000   0.0000   0.0000   0.1873
 -22.500  -0.3973   0.24681   0.24394  -0.0098  1.0000  0.0089  -1.3458   0.0000   0.0000   0.0000   0.1837
 -22.250  -0.3900   0.24469   0.24183  -0.0111  1.0000  0.0089  -1.3275   0.0000   0.0000   0.0000   0.1799
 -22.000  -0.3827   0.24253   0.23968  -0.0123  1.0000  0.0090  -1.3131   0.0000   0.0000   0.0000   0.1760
 -21.750  -0.3753   0.24044   0.23760  -0.0136  1.0000  0.0091  -1.3010   0.0000   0.0000   0.0000   0.1719
 -21.500  -0.3680   0.23828   0.23545  -0.0148  1.0000  0.0092  -1.2903   0.0000   0.0000   0.0000   0.1677
 -21.250  -0.3607   0.23610   0.23328  -0.0160  1.0000  0.0093  -1.2804   0.0000   0.0000   0.0000   0.1634
 -21.000  -0.3533   0.23391   0.23110  -0.0171  1.0000  0.0094  -1.2710   0.0000   0.0000   0.0000   0.1590
 -20.750  -0.3460   0.23171   0.22891  -0.0183  1.0000  0.0095  -1.2619   0.0000   0.0000   0.0000   0.1545
 -20.500  -0.3388   0.22951   0.22672  -0.0194  1.0000  0.0097  -1.2529   0.0000   0.0000   0.0000   0.1498
 -20.250  -0.3315   0.22728   0.22450  -0.0205  1.0000  0.0098  -1.2489   0.0000   0.0000   0.0000   0.1451
 -20.000  -0.3244   0.22503   0.22226  -0.0215  1.0000  0.0100  -1.2507   0.0000   0.0000   0.0000   0.1402
 -19.750  -0.3172   0.22278   0.22002  -0.0225  1.0000  0.0101  -1.2541   0.0000   0.0000   0.0000   0.1352
 -19.500  -0.3101   0.22051   0.21777  -0.0235  1.0000  0.0102  -1.2590   0.0000   0.0000   0.0000   0.1302
 -19.250  -0.3031   0.21825   0.21551  -0.0244  1.0000  0.0102  -1.2660   0.0000   0.0000   0.0000   0.1249
 -19.000  -0.2962   0.21595   0.21323  -0.0253  1.0000  0.0103  -1.2754   0.0000   0.0000   0.0000   0.1196
 -18.750  -0.2893   0.21364   0.21093  -0.0262  1.0000  0.0103  -1.2879   0.0000   0.0000   0.0000   0.1140
 -18.000  -0.2698   0.20686   0.20420  -0.0289  1.0000  0.0104  -1.3403   0.0000   0.0000   0.0000   0.0966
 -17.750  -0.2633   0.20464   0.20200  -0.0293  1.0000  0.0104  -1.3029   0.0000   0.0000   0.0000   0.0919
 -17.500  -0.2571   0.20252   0.19990  -0.0299  1.0000  0.0105  -1.2751   0.0000   0.0000   0.0000   0.0868
 -17.250  -0.2510   0.20043   0.19783  -0.0304  1.0000  0.0106  -1.2537   0.0000   0.0000   0.0000   0.0816
 -14.250  -0.0803   0.16324   0.16068  -0.0658  0.9870  0.0121  -1.2319   0.0000   0.0000   0.0000  -0.7067
 -14.000  -0.0605   0.15968   0.15712  -0.0701  0.9857  0.0122  -1.1854   0.0000   0.0000   0.0000  -1.0892
 -13.750  -0.0424   0.15620   0.15364  -0.0739  0.9835  0.0123  -1.1536   0.0000   0.0000   0.0000  -1.7474
 -13.500  -0.0239   0.15265   0.15009  -0.0777  0.9810  0.0125  -1.1369   0.0000   0.0000   0.0000  -3.4521
 -13.250  -0.0036   0.14895   0.14638  -0.0822  0.9795  0.0128  -1.1276   0.0000   0.0000   0.0000  -25.9050
 -13.000   0.0135   0.14543   0.14286  -0.0856  0.9763  0.0130  -1.1232   0.0000   0.0000   0.0000   7.4129
 -12.750   0.0327   0.14170   0.13913  -0.0897  0.9737  0.0133  -1.1243   0.0000   0.0000   0.0000   3.3244
 -11.500   0.0893   0.12640   0.12386  -0.0979  0.9207  0.0138  -1.1720   0.0000   0.0000   0.0000   1.4591
 -11.250   0.1128   0.12243   0.11985  -0.1027  0.9078  0.0140  -1.1264   0.0000   0.0000   0.0000   1.2495
 -11.000   0.1467   0.11755   0.11491  -0.1108  0.8978  0.0143  -1.0880   0.0000   0.0000   0.0000   1.0736
 -10.750   0.1913   0.11185   0.10910  -0.1220  0.8882  0.0147  -1.0549   0.0000   0.0000   0.0000   0.9423
  -9.250   0.3691   0.08970   0.08577  -0.1622  0.7475  0.0168  -1.0112   0.0000   0.0000   0.0000   0.7183
  -9.000   0.3770   0.08778   0.08376  -0.1626  0.7341  0.0171  -1.0362   0.0000   0.0000   0.0000   0.7087
  -8.750   0.3837   0.08585   0.08177  -0.1632  0.7226  0.0173  -1.0999   0.0000   0.0000   0.0000   0.7014
  -8.500   0.3916   0.08390   0.07976  -0.1635  0.7124  0.0173  -1.1113   0.0000   0.0000   0.0000   0.6924
  -8.250   0.4012   0.08208   0.07788  -0.1634  0.7028  0.0175  -1.0570   0.0000   0.0000   0.0000   0.6808
  -8.000   0.4102   0.08033   0.07610  -0.1635  0.6940  0.0177  -1.0270   0.0000   0.0000   0.0000   0.6709
  -7.750   0.4189   0.07857   0.07430  -0.1637  0.6863  0.0180  -1.0290   0.0000   0.0000   0.0000   0.6618
  -7.500   0.4274   0.07679   0.07248  -0.1638  0.6791  0.0184  -1.0371   0.0000   0.0000   0.0000   0.6534
  -7.250   0.4355   0.07496   0.07064  -0.1641  0.6723  0.0188  -1.0444   0.0000   0.0000   0.0000   0.6457
  -7.000   0.4415   0.07307   0.06872  -0.1645  0.6663  0.0192  -1.0731   0.0000   0.0000   0.0000   0.6407
  -6.750   0.4479   0.07120   0.06685  -0.1646  0.6602  0.0193  -1.0914   0.0000   0.0000   0.0000   0.6344
  -6.500   0.4574   0.06955   0.06517  -0.1642  0.6544  0.0195  -1.0643   0.0000   0.0000   0.0000   0.6249
  -6.250   0.4651   0.06797   0.06359  -0.1638  0.6489  0.0198  -1.0725   0.0000   0.0000   0.0000   0.6173
  -6.000   0.4714   0.06639   0.06200  -0.1634  0.6437  0.0203  -1.0798   0.0000   0.0000   0.0000   0.6107
  -5.750   0.4758   0.06482   0.06042  -0.1627  0.6390  0.0208  -1.0852   0.0000   0.0000   0.0000   0.6051
  -5.500   0.4743   0.06318   0.05882  -0.1625  0.6340  0.0212  -1.1624   0.0000   0.0000   0.0000   0.6050
  -5.250   0.4846   0.06143   0.05703  -0.1623  0.6294  0.0214  -1.1208   0.0000   0.0000   0.0000   0.5965
  -5.000   0.4943   0.05990   0.05552  -0.1621  0.6244  0.0217  -1.1040   0.0000   0.0000   0.0000   0.5886
  -4.750   0.5049   0.05821   0.05382  -0.1627  0.6198  0.0225  -1.1130   0.0000   0.0000   0.0000   0.5821
  -4.500   0.5198   0.05548   0.05106  -0.1676  0.6160  0.0233  -1.2090   0.0000   0.0000   0.0000   0.5812
  -4.250   0.5315   0.05398   0.04959  -0.1667  0.6115  0.0236  -1.1304   0.0000   0.0000   0.0000   0.5718
  -4.000   0.5472   0.05218   0.04776  -0.1683  0.6074  0.0242  -1.1428   0.0000   0.0000   0.0000   0.5647
  -3.750   0.5792   0.04833   0.04386  -0.1779  0.6037  0.0255  -1.2463   0.0000   0.0000   0.0000   0.5635
  -3.500   0.5923   0.04704   0.04259  -0.1769  0.5992  0.0258  -1.1710   0.0000   0.0000   0.0000   0.5543
  -3.250   0.6162   0.04499   0.04050  -0.1801  0.5952  0.0268  -1.1887   0.0000   0.0000   0.0000   0.5471
  -3.000   0.6565   0.04143   0.03686  -0.1891  0.5914  0.0282  -1.2111   0.0000   0.0000   0.0000   0.5420
  -2.750   0.7086   0.03715   0.03250  -0.2009  0.5869  0.0304  -1.2393   0.0000   0.0000   0.0000   0.5369
  -2.500   0.7382   0.03554   0.03083  -0.2039  0.5830  0.0317  -1.2626   0.0000   0.0000   0.0000   0.5288
  -2.000   0.8722   0.02674   0.02162  -0.2307  0.5747  0.0391  -1.3423   0.0000   0.0000   0.0000   0.5158
  -1.500   1.0397   0.01648   0.00951  -0.2592  0.5665  0.0327  -1.4460   0.0000   0.0000   0.0000   0.4996
  -1.250   1.0763   0.01533   0.00811  -0.2612  0.5624  0.0307  -1.4763   0.0000   0.0000   0.0000   0.4925
  -1.000   1.1099   0.01475   0.00730  -0.2624  0.5588  0.0308  -1.5054   0.0000   0.0000   0.0000   0.4857
  -0.750   1.1407   0.01441   0.00685  -0.2630  0.5550  0.0321  -1.5331   0.0000   0.0000   0.0000   0.4794
  -0.500   1.1704   0.01415   0.00656  -0.2634  0.5510  0.0342  -1.5603   0.0000   0.0000   0.0000   0.4734
  -0.250   1.2007   0.01394   0.00628  -0.2639  0.5474  0.0361  -1.5889   0.0000   0.0000   0.0000   0.4677
   0.000   1.2301   0.01382   0.00615  -0.2643  0.5436  0.0393  -1.6177   0.0000   0.0000   0.0000   0.4622
   0.250   1.2590   0.01369   0.00604  -0.2646  0.5394  0.0428  -1.6463   0.0000   0.0000   0.0000   0.4570
   0.500   1.2885   0.01365   0.00597  -0.2650  0.5360  0.0491  -1.6755   0.0000   0.0000   0.0000   0.4521
   0.750   1.3179   0.01361   0.00594  -0.2654  0.5325  0.0624  -1.7045   0.0000   0.0000   0.0000   0.4473
   1.000   1.3482   0.01340   0.00608  -0.2662  0.5286  0.2113  -1.7342   0.0000   0.0000   0.0000   0.4429
   1.250   1.3754   0.01350   0.00619  -0.2661  0.5252  0.2504  -1.7622   0.0000   0.0000   0.0000   0.4385
   1.500   1.4028   0.01362   0.00632  -0.2661  0.5218  0.2814  -1.7909   0.0000   0.0000   0.0000   0.4342
   1.750   1.4291   0.01367   0.00646  -0.2659  0.5178  0.3234  -1.8190   0.0000   0.0000   0.0000   0.4301
   2.000   1.4571   0.01367   0.00664  -0.2662  0.5143  0.4153  -1.8502   0.0000   0.0000   0.0000   0.4263
   2.250   1.4846   0.01348   0.00703  -0.2663  0.5110  0.7499  -1.8820   0.0000   0.0000   0.0000   0.4225
   2.750   1.5304   0.01349   0.00720  -0.2642  0.5039  1.0000  -1.9387   0.0000   0.0000   0.0000   0.4148
   3.000   1.5577   0.01374   0.00733  -0.2642  0.5008  1.0000  -1.9706   0.0000   0.0000   0.0000   0.4113
   3.250   1.5821   0.01390   0.00749  -0.2636  0.4970  1.0000  -2.0000   0.0000   0.0000   0.0000   0.4079
   3.500   1.6071   0.01409   0.00764  -0.2631  0.4934  1.0000  -2.0302   0.0000   0.0000   0.0000   0.4045
   3.750   1.6334   0.01433   0.00779  -0.2629  0.4902  1.0000  -2.0616   0.0000   0.0000   0.0000   0.4013
   4.000   1.6572   0.01452   0.00799  -0.2622  0.4864  1.0000  -2.0906   0.0000   0.0000   0.0000   0.3981
   4.250   1.6812   0.01472   0.00817  -0.2616  0.4827  1.0000  -2.1202   0.0000   0.0000   0.0000   0.3950
   4.500   1.7066   0.01497   0.00835  -0.2613  0.4796  1.0000  -2.1510   0.0000   0.0000   0.0000   0.3920
   4.750   1.7301   0.01519   0.00858  -0.2606  0.4761  1.0000  -2.1799   0.0000   0.0000   0.0000   0.3890
   5.000   1.7533   0.01540   0.00880  -0.2598  0.4726  1.0000  -2.2087   0.0000   0.0000   0.0000   0.3861
   5.250   1.7773   0.01566   0.00901  -0.2593  0.4694  1.0000  -2.2399   0.0000   0.0000   0.0000   0.3833
   5.500   1.8003   0.01591   0.00927  -0.2585  0.4661  1.0000  -2.2723   0.0000   0.0000   0.0000   0.3805
   5.750   1.8218   0.01615   0.00953  -0.2574  0.4627  1.0000  -2.3034   0.0000   0.0000   0.0000   0.3778
   6.000   1.8443   0.01641   0.00978  -0.2566  0.4596  1.0000  -2.3357   0.0000   0.0000   0.0000   0.3751
   6.250   1.8680   0.01672   0.01005  -0.2560  0.4566  1.0000  -2.3690   0.0000   0.0000   0.0000   0.3725
   6.500   1.8870   0.01698   0.01037  -0.2545  0.4530  1.0000  -2.3980   0.0000   0.0000   0.0000   0.3698
   6.750   1.9074   0.01726   0.01065  -0.2533  0.4495  1.0000  -2.4286   0.0000   0.0000   0.0000   0.3672
   7.000   1.9302   0.01759   0.01095  -0.2526  0.4464  1.0000  -2.4632   0.0000   0.0000   0.0000   0.3648
   7.250   1.9474   0.01788   0.01132  -0.2508  0.4427  1.0000  -2.4926   0.0000   0.0000   0.0000   0.3622
   7.500   1.9666   0.01820   0.01166  -0.2494  0.4392  1.0000  -2.5240   0.0000   0.0000   0.0000   0.3597
   7.750   1.9891   0.01856   0.01198  -0.2487  0.4362  1.0000  -2.5586   0.0000   0.0000   0.0000   0.3574
   8.000   2.0054   0.01891   0.01243  -0.2468  0.4327  1.0000  -2.5871   0.0000   0.0000   0.0000   0.3549
   8.250   2.0239   0.01928   0.01283  -0.2454  0.4295  1.0000  -2.6178   0.0000   0.0000   0.0000   0.3526
   8.500   2.0450   0.01967   0.01320  -0.2445  0.4266  1.0000  -2.6511   0.0000   0.0000   0.0000   0.3503
   8.750   2.0617   0.02010   0.01370  -0.2428  0.4232  1.0000  -2.6799   0.0000   0.0000   0.0000   0.3480
   9.000   2.0781   0.02053   0.01420  -0.2410  0.4197  1.0000  -2.7085   0.0000   0.0000   0.0000   0.3457
   9.250   2.0969   0.02097   0.01464  -0.2398  0.4166  1.0000  -2.7396   0.0000   0.0000   0.0000   0.3435
   9.500   2.1133   0.02147   0.01520  -0.2381  0.4133  1.0000  -2.7681   0.0000   0.0000   0.0000   0.3413
   9.750   2.1284   0.02198   0.01579  -0.2362  0.4098  1.0000  -2.7952   0.0000   0.0000   0.0000   0.3391
  10.000   2.1456   0.02249   0.01631  -0.2348  0.4068  1.0000  -2.8275   0.0000   0.0000   0.0000   0.3369
  10.250   2.1599   0.02308   0.01696  -0.2329  0.4030  1.0000  -2.8784   0.0000   0.0000   0.0000   0.3348
  10.500   2.1702   0.02375   0.01771  -0.2303  0.3985  1.0000  -2.9302   0.0000   0.0000   0.0000   0.3325
  10.750   2.1830   0.02442   0.01839  -0.2283  0.3942  1.0000  -2.9861   0.0000   0.0000   0.0000   0.3304
  11.000   2.1902   0.02526   0.01935  -0.2254  0.3892  1.0000  -3.0336   0.0000   0.0000   0.0000   0.3281
  11.250   2.2023   0.02604   0.02011  -0.2234  0.3848  1.0000  -3.0890   0.0000   0.0000   0.0000   0.3261
  11.500   2.2087   0.02702   0.02124  -0.2206  0.3801  1.0000  -3.1376   0.0000   0.0000   0.0000   0.3239
  11.750   2.2190   0.02795   0.02220  -0.2185  0.3761  1.0000  -3.2030   0.0000   0.0000   0.0000   0.3219
  12.000   2.2276   0.02899   0.02334  -0.2163  0.3719  1.0000  -3.2689   0.0000   0.0000   0.0000   0.3199
  12.250   2.2344   0.03016   0.02459  -0.2139  0.3672  1.0000  -3.3342   0.0000   0.0000   0.0000   0.3180
  12.500   2.2419   0.03138   0.02586  -0.2118  0.3629  1.0000  -3.4011   0.0000   0.0000   0.0000   0.3161
  12.750   2.2476   0.03275   0.02733  -0.2095  0.3583  1.0000  -3.4646   0.0000   0.0000   0.0000   0.3142
  13.000   2.2546   0.03412   0.02873  -0.2075  0.3542  1.0000  -3.5330   0.0000   0.0000   0.0000   0.3124
  13.250   2.2579   0.03580   0.03054  -0.2053  0.3490  1.0000  -3.5977   0.0000   0.0000   0.0000   0.3106
  13.500   2.2617   0.03752   0.03230  -0.2033  0.3443  1.0000  -3.6642   0.0000   0.0000   0.0000   0.3089
  13.750   2.2634   0.03951   0.03441  -0.2012  0.3387  1.0000  -3.7259   0.0000   0.0000   0.0000   0.3073
  14.000   2.2652   0.04158   0.03654  -0.1993  0.3336  1.0000  -3.7881   0.0000   0.0000   0.0000   0.3057
  14.250   2.2658   0.04384   0.03891  -0.1975  0.3281  1.0000  -3.8573   0.0000   0.0000   0.0000   0.3042
  14.500   2.2660   0.04624   0.04139  -0.1958  0.3227  1.0000  -3.9357   0.0000   0.0000   0.0000   0.3027
  14.750   2.2645   0.04888   0.04409  -0.1941  0.3172  1.0000  -4.0098   0.0000   0.0000   0.0000   0.3013
  15.000   2.2627   0.05166   0.04699  -0.1926  0.3113  1.0000  -4.0832   0.0000   0.0000   0.0000   0.3000
  15.250   2.2590   0.05471   0.05009  -0.1911  0.3056  1.0000  -4.1516   0.0000   0.0000   0.0000   0.2988
  15.500   2.2545   0.05797   0.05344  -0.1898  0.2992  1.0000  -4.2221   0.0000   0.0000   0.0000   0.2977
  15.750   2.2485   0.06148   0.05706  -0.1885  0.2926  1.0000  -4.2906   0.0000   0.0000   0.0000   0.2966
  16.000   2.2406   0.06531   0.06095  -0.1874  0.2858  1.0000  -4.3531   0.0000   0.0000   0.0000   0.2956
  16.500   2.2204   0.07384   0.06963  -0.1854  0.2706  1.0000  -4.4632   0.0000   0.0000   0.0000   0.2940
  16.750   2.2087   0.07845   0.07431  -0.1847  0.2624  1.0000  -4.5128   0.0000   0.0000   0.0000   0.2934
  17.000   2.1956   0.08334   0.07927  -0.1841  0.2539  1.0000  -4.5823   0.0000   0.0000   0.0000   0.2928
  17.250   2.1808   0.08853   0.08451  -0.1837  0.2446  1.0000  -4.6541   0.0000   0.0000   0.0000   0.2924
  17.500   2.1642   0.09408   0.09010  -0.1835  0.2346  1.0000  -4.7186   0.0000   0.0000   0.0000   0.2922
  17.750   2.1463   0.09987   0.09591  -0.1836  0.2240  1.0000  -4.7740   0.0000   0.0000   0.0000   0.2921
  18.000   2.1285   0.10570   0.10178  -0.1839  0.2126  1.0000  -4.8275   0.0000   0.0000   0.0000   0.2922
  18.250   2.1102   0.11167   0.10775  -0.1844  0.2008  1.0000  -4.8742   0.0000   0.0000   0.0000   0.2924
  18.500   2.0910   0.11778   0.11385  -0.1852  0.1892  1.0000  -4.9127   0.0000   0.0000   0.0000   0.2928
  18.750   2.0733   0.12369   0.11975  -0.1863  0.1768  1.0000  -4.9565   0.0000   0.0000   0.0000   0.2933
  19.000   2.0555   0.12963   0.12567  -0.1876  0.1659  1.0000  -4.9951   0.0000   0.0000   0.0000   0.2940
  19.250   2.0410   0.13506   0.13109  -0.1890  0.1555  1.0000  -5.0511   0.0000   0.0000   0.0000   0.2945
  19.500   2.0281   0.14023   0.13625  -0.1905  0.1461  1.0000  -5.1142   0.0000   0.0000   0.0000   0.2951
  19.750   2.0170   0.14512   0.14112  -0.1921  0.1378  1.0000  -5.1864   0.0000   0.0000   0.0000   0.2956
  20.000   2.0081   0.14964   0.14565  -0.1937  0.1301  1.0000  -5.2716   0.0000   0.0000   0.0000   0.2960
  20.250   2.0004   0.15396   0.14998  -0.1953  0.1229  1.0000  -5.3633   0.0000   0.0000   0.0000   0.2964
  20.500   1.9938   0.15809   0.15412  -0.1970  0.1164  1.0000  -5.4616   0.0000   0.0000   0.0000   0.2968
  20.750   1.9881   0.16208   0.15812  -0.1987  0.1103  1.0000  -5.5654   0.0000   0.0000   0.0000   0.2971
  21.000   1.9830   0.16598   0.16203  -0.2005  0.1046  1.0000  -5.6721   0.0000   0.0000   0.0000   0.2975
  21.250   1.9780   0.16981   0.16587  -0.2024  0.0993  1.0000  -5.7800   0.0000   0.0000   0.0000   0.2978
  21.500   1.9740   0.17347   0.16955  -0.2042  0.0940  1.0000  -5.8940   0.0000   0.0000   0.0000   0.2982
  21.750   1.9712   0.17694   0.17305  -0.2061  0.0888  1.0000  -6.0171   0.0000   0.0000   0.0000   0.2984
  22.000   1.9683   0.18039   0.17654  -0.2080  0.0840  1.0000  -6.1389   0.0000   0.0000   0.0000   0.2987
  22.250   1.9659   0.18375   0.17992  -0.2099  0.0793  1.0000  -6.2646   0.0000   0.0000   0.0000   0.2990
  22.500   1.9630   0.18718   0.18337  -0.2119  0.0749  1.0000  -6.3867   0.0000   0.0000   0.0000   0.2993
  22.750   1.9596   0.19070   0.18690  -0.2141  0.0710  1.0000  -6.5042   0.0000   0.0000   0.0000   0.2997
  23.000   1.9576   0.19395   0.19018  -0.2162  0.0669  1.0000  -6.6326   0.0000   0.0000   0.0000   0.3001
  23.250   1.9560   0.19713   0.19339  -0.2183  0.0630  1.0000  -6.7649   0.0000   0.0000   0.0000   0.3003
  23.500   1.9542   0.20030   0.19661  -0.2204  0.0594  1.0000  -6.8955   0.0000   0.0000   0.0000   0.3007
  23.750   1.9524   0.20347   0.19981  -0.2227  0.0560  1.0000  -7.0259   0.0000   0.0000   0.0000   0.3010
  24.000   1.9499   0.20677   0.20312  -0.2250  0.0530  1.0000  -7.1545   0.0000   0.0000   0.0000   0.3015
  24.250   1.9487   0.20978   0.20618  -0.2273  0.0500  1.0000  -7.2991   0.0000   0.0000   0.0000   0.3018
  24.500   1.9480   0.21273   0.20918  -0.2295  0.0472  1.0000  -7.4476   0.0000   0.0000   0.0000   0.3021
  24.750   1.9464   0.21581   0.21230  -0.2319  0.0448  1.0000  -7.5874   0.0000   0.0000   0.0000   0.3025
  25.000   1.9444   0.21895   0.21546  -0.2344  0.0424  1.0000  -7.7229   0.0000   0.0000   0.0000   0.3029


