xflr5 v6.59

 Calculated polar for: TKV2008

 1 1 Reynolds number fixed          Mach number fixed         

 xtrf =   1.000 (top)        1.000 (bottom)
 Mach =   0.000     Re =     0.140 e 6     Ncrit =   9.000

  alpha     CL        CD       CDp       Cm    Top Xtr Bot Xtr   Cpmin    Chinge    XCp    
 ------- -------- --------- --------- -------- ------- ------- -------- --------- ---------
 -24.500  -0.4447   0.26457   0.25935  -0.0028  1.0000  0.0173  -1.3173   0.0000   0.0000   0.0000   0.2012
 -24.250  -0.4375   0.26239   0.25718  -0.0042  1.0000  0.0175  -1.2995   0.0000   0.0000   0.0000   0.1979
 -24.000  -0.4301   0.26026   0.25506  -0.0057  1.0000  0.0176  -1.2854   0.0000   0.0000   0.0000   0.1943
 -23.750  -0.4227   0.25818   0.25299  -0.0071  1.0000  0.0178  -1.2729   0.0000   0.0000   0.0000   0.1906
 -23.500  -0.4153   0.25607   0.25090  -0.0085  1.0000  0.0180  -1.2649   0.0000   0.0000   0.0000   0.1868
 -23.250  -0.4078   0.25395   0.24879  -0.0100  1.0000  0.0182  -1.2613   0.0000   0.0000   0.0000   0.1829
 -23.000  -0.4004   0.25181   0.24666  -0.0113  1.0000  0.0184  -1.2586   0.0000   0.0000   0.0000   0.1788
 -22.750  -0.3929   0.24967   0.24452  -0.0127  1.0000  0.0186  -1.2566   0.0000   0.0000   0.0000   0.1746
 -22.500  -0.3855   0.24751   0.24238  -0.0141  1.0000  0.0188  -1.2553   0.0000   0.0000   0.0000   0.1703
 -22.250  -0.3781   0.24534   0.24023  -0.0154  1.0000  0.0189  -1.2550   0.0000   0.0000   0.0000   0.1659
 -22.000  -0.3706   0.24321   0.23811  -0.0167  1.0000  0.0191  -1.2560   0.0000   0.0000   0.0000   0.1613
 -21.250  -0.3486   0.23668   0.23163  -0.0206  1.0000  0.0193  -1.2583   0.0000   0.0000   0.0000   0.1466
 -21.000  -0.3413   0.23441   0.22938  -0.0216  1.0000  0.0194  -1.2386   0.0000   0.0000   0.0000   0.1420
 -20.750  -0.3339   0.23228   0.22726  -0.0227  1.0000  0.0196  -1.2290   0.0000   0.0000   0.0000   0.1370
 -20.500  -0.3266   0.23012   0.22513  -0.0238  1.0000  0.0198  -1.2224   0.0000   0.0000   0.0000   0.1318
 -20.250  -0.3193   0.22797   0.22299  -0.0249  1.0000  0.0200  -1.2175   0.0000   0.0000   0.0000   0.1265
 -20.000  -0.3121   0.22580   0.22085  -0.0260  1.0000  0.0203  -1.2142   0.0000   0.0000   0.0000   0.1210
 -19.750  -0.3049   0.22362   0.21869  -0.0270  1.0000  0.0206  -1.2125   0.0000   0.0000   0.0000   0.1153
 -19.500  -0.2978   0.22144   0.21653  -0.0280  1.0000  0.0208  -1.2125   0.0000   0.0000   0.0000   0.1094
 -19.250  -0.2908   0.21927   0.21438  -0.0290  1.0000  0.0210  -1.2145   0.0000   0.0000   0.0000   0.1033
 -19.000  -0.2838   0.21710   0.21224  -0.0299  1.0000  0.0211  -1.2187   0.0000   0.0000   0.0000   0.0971
 -18.500  -0.2704   0.21287   0.20805  -0.0319  1.0000  0.0212  -1.2333   0.0000   0.0000   0.0000   0.0838
 -18.250  -0.2635   0.21055   0.20576  -0.0325  1.0000  0.0214  -1.2105   0.0000   0.0000   0.0000   0.0779
 -18.000  -0.2568   0.20836   0.20360  -0.0332  1.0000  0.0216  -1.1945   0.0000   0.0000   0.0000   0.0716
 -17.750  -0.2502   0.20623   0.20150  -0.0338  1.0000  0.0218  -1.1821   0.0000   0.0000   0.0000   0.0651
 -17.500  -0.2438   0.20408   0.19938  -0.0345  1.0000  0.0221  -1.1779   0.0000   0.0000   0.0000   0.0584
 -17.250  -0.2375   0.20195   0.19728  -0.0351  1.0000  0.0223  -1.1773   0.0000   0.0000   0.0000   0.0516
 -17.000  -0.2314   0.19986   0.19523  -0.0357  1.0000  0.0226  -1.1784   0.0000   0.0000   0.0000   0.0447
 -16.750  -0.2255   0.19776   0.19316  -0.0362  1.0000  0.0228  -1.1818   0.0000   0.0000   0.0000   0.0379
 -16.500  -0.2198   0.19569   0.19112  -0.0367  1.0000  0.0231  -1.1889   0.0000   0.0000   0.0000   0.0310
 -16.250  -0.2144   0.19367   0.18914  -0.0372  1.0000  0.0232  -1.2026   0.0000   0.0000   0.0000   0.0242
 -16.000  -0.2096   0.19176   0.18727  -0.0376  1.0000  0.0233  -1.2220   0.0000   0.0000   0.0000   0.0176
 -15.750  -0.2042   0.18954   0.18510  -0.0377  1.0000  0.0235  -1.1978   0.0000   0.0000   0.0000   0.0124
 -15.500  -0.1995   0.18754   0.18315  -0.0377  1.0000  0.0238  -1.1848   0.0000   0.0000   0.0000   0.0075
 -15.250  -0.1952   0.18564   0.18129  -0.0377  1.0000  0.0241  -1.1776   0.0000   0.0000   0.0000   0.0032
 -15.000  -0.1915   0.18379   0.17949  -0.0376  1.0000  0.0244  -1.1739   0.0000   0.0000   0.0000   0.0000
 -14.750  -0.1885   0.18203   0.17779  -0.0373  1.0000  0.0247  -1.1727   0.0000   0.0000   0.0000  -0.0015
 -14.500  -0.1865   0.18040   0.17621  -0.0369  1.0000  0.0250  -1.1742   0.0000   0.0000   0.0000  -0.0006
 -14.250  -0.1860   0.17893   0.17481  -0.0362  1.0000  0.0252  -1.1794   0.0000   0.0000   0.0000   0.0038
 -13.500  -0.1656   0.17281   0.16885  -0.0399  0.9964  0.0257  -1.1829   0.0000   0.0000   0.0000  -0.0468
 -13.250  -0.1412   0.16870   0.16472  -0.0454  0.9925  0.0261  -1.1557   0.0000   0.0000   0.0000  -0.1376
 -13.000  -0.1171   0.16470   0.16072  -0.0509  0.9885  0.0267  -1.1421   0.0000   0.0000   0.0000  -0.2651
 -12.750  -0.0930   0.16076   0.15676  -0.0566  0.9850  0.0272  -1.1379   0.0000   0.0000   0.0000  -0.4603
 -12.250  -0.0480   0.15281   0.14880  -0.0673  0.9747  0.0279  -1.1545   0.0000   0.0000   0.0000  -1.3517
 -10.750   0.0766   0.12967   0.12563  -0.0929  0.9327  0.0314  -1.0568   0.0000   0.0000   0.0000   1.5836
 -10.500   0.0957   0.12604   0.12199  -0.0966  0.9242  0.0322  -1.0489   0.0000   0.0000   0.0000   1.3556
 -10.250   0.1140   0.12263   0.11857  -0.1006  0.9157  0.0327  -1.0658   0.0000   0.0000   0.0000   1.2124
 -10.000   0.1350   0.11870   0.11463  -0.1043  0.9089  0.0331  -1.0494   0.0000   0.0000   0.0000   1.0899
  -9.750   0.1575   0.11490   0.11079  -0.1084  0.9014  0.0339  -1.0274   0.0000   0.0000   0.0000   0.9953
  -9.500   0.1808   0.11115   0.10701  -0.1132  0.8930  0.0348  -1.0274   0.0000   0.0000   0.0000   0.9252
  -9.000   0.2393   0.10287   0.09861  -0.1257  0.8781  0.0363  -1.0084   0.0000   0.0000   0.0000   0.8127
  -8.750   0.2762   0.09850   0.09414  -0.1343  0.8707  0.0377  -0.9972   0.0000   0.0000   0.0000   0.7687
  -8.500   0.3122   0.09426   0.08979  -0.1427  0.8606  0.0386  -0.9935   0.0000   0.0000   0.0000   0.7361
  -8.250   0.3491   0.09022   0.08562  -0.1505  0.8492  0.0404  -0.9747   0.0000   0.0000   0.0000   0.7073
  -8.000   0.3798   0.08680   0.08206  -0.1576  0.8364  0.0416  -0.9929   0.0000   0.0000   0.0000   0.6889
  -7.750   0.4052   0.08387   0.07899  -0.1618  0.8230  0.0431  -1.0105   0.0000   0.0000   0.0000   0.6715
  -7.500   0.4211   0.08186   0.07687  -0.1652  0.8096  0.0443  -1.0197   0.0000   0.0000   0.0000   0.6630
  -7.250   0.4383   0.07943   0.07434  -0.1670  0.7983  0.0451  -1.0327   0.0000   0.0000   0.0000   0.6506
  -7.000   0.4533   0.07742   0.07224  -0.1686  0.7880  0.0466  -1.0437   0.0000   0.0000   0.0000   0.6403
  -6.750   0.4598   0.07612   0.07089  -0.1696  0.7774  0.0477  -1.0475   0.0000   0.0000   0.0000   0.6361
  -6.500   0.4702   0.07417   0.06892  -0.1695  0.7679  0.0485  -1.0571   0.0000   0.0000   0.0000   0.6268
  -6.250   0.4806   0.07249   0.06719  -0.1696  0.7594  0.0500  -1.0665   0.0000   0.0000   0.0000   0.6184
  -6.000   0.4864   0.07125   0.06589  -0.1706  0.7517  0.0514  -1.0704   0.0000   0.0000   0.0000   0.6152
  -5.750   0.4921   0.06968   0.06434  -0.1694  0.7434  0.0521  -1.0771   0.0000   0.0000   0.0000   0.6079
  -5.500   0.5017   0.06817   0.06279  -0.1692  0.7367  0.0537  -1.0861   0.0000   0.0000   0.0000   0.6001
  -5.250   0.5065   0.06715   0.06178  -0.1706  0.7294  0.0553  -1.0879   0.0000   0.0000   0.0000   0.5989
  -5.000   0.5181   0.06525   0.05986  -0.1700  0.7231  0.0567  -1.0990   0.0000   0.0000   0.0000   0.5893
  -4.750   0.5294   0.06385   0.05844  -0.1721  0.7168  0.0593  -1.1056   0.0000   0.0000   0.0000   0.5854
  -4.500   0.5408   0.06209   0.05669  -0.1722  0.7108  0.0609  -1.1153   0.0000   0.0000   0.0000   0.5779
  -4.250   0.5575   0.06055   0.05512  -0.1770  0.7048  0.0642  -1.1234   0.0000   0.0000   0.0000   0.5762
  -4.000   0.5703   0.05867   0.05323  -0.1757  0.6995  0.0658  -1.1369   0.0000   0.0000   0.0000   0.5661
  -3.750   0.5932   0.05673   0.05128  -0.1825  0.6934  0.0694  -1.1475   0.0000   0.0000   0.0000   0.5647
  -3.500   0.6088   0.05492   0.04941  -0.1812  0.6887  0.0717  -1.1636   0.0000   0.0000   0.0000   0.5540
  -3.250   0.6307   0.05291   0.04742  -0.1859  0.6824  0.0754  -1.1754   0.0000   0.0000   0.0000   0.5504
  -3.000   0.6683   0.05032   0.04470  -0.1936  0.6780  0.0810  -1.1979   0.0000   0.0000   0.0000   0.5446
  -2.750   0.6787   0.04909   0.04353  -0.1917  0.6722  0.0840  -1.2086   0.0000   0.0000   0.0000   0.5367
  -2.500   0.7338   0.04588   0.04015  -0.2048  0.6673  0.0942  -1.2392   0.0000   0.0000   0.0000   0.5326
  -1.000   1.0700   0.02628   0.01835  -0.2587  0.6379  0.0732  -1.4516   0.0000   0.0000   0.0000   0.4916
  -0.750   1.1113   0.02500   0.01659  -0.2617  0.6329  0.0714  -1.4833   0.0000   0.0000   0.0000   0.4849
  -0.500   1.1521   0.02408   0.01522  -0.2641  0.6292  0.0716  -1.5174   0.0000   0.0000   0.0000   0.4782
  -0.250   1.1795   0.02381   0.01480  -0.2641  0.6237  0.0751  -1.5414   0.0000   0.0000   0.0000   0.4724
   0.000   1.2113   0.02345   0.01433  -0.2648  0.6194  0.0803  -1.5702   0.0000   0.0000   0.0000   0.4666
   0.250   1.2437   0.02318   0.01407  -0.2657  0.6156  0.0899  -1.5998   0.0000   0.0000   0.0000   0.4612
   0.500   1.2696   0.02317   0.01419  -0.2655  0.6103  0.1058  -1.6234   0.0000   0.0000   0.0000   0.4562
   0.750   1.3067   0.02284   0.01422  -0.2674  0.6065  0.2481  -1.6567   0.0000   0.0000   0.0000   0.4513
   1.000   1.3336   0.02311   0.01458  -0.2675  0.6021  0.3392  -1.6834   0.0000   0.0000   0.0000   0.4467
   1.250   1.3596   0.02329   0.01494  -0.2674  0.5972  0.4145  -1.7095   0.0000   0.0000   0.0000   0.4423
   1.500   1.3919   0.02315   0.01507  -0.2683  0.5937  0.5584  -1.7418   0.0000   0.0000   0.0000   0.4379
   1.750   1.4001   0.02293   0.01543  -0.2639  0.5893  1.0000  -1.7566   0.0000   0.0000   0.0000   0.4332
   2.000   1.4269   0.02336   0.01565  -0.2638  0.5849  1.0000  -1.7858   0.0000   0.0000   0.0000   0.4292
   2.250   1.4588   0.02363   0.01567  -0.2646  0.5817  1.0000  -1.8202   0.0000   0.0000   0.0000   0.4252
   2.500   1.4797   0.02426   0.01627  -0.2636  0.5769  1.0000  -1.8440   0.0000   0.0000   0.0000   0.4215
   2.750   1.5057   0.02466   0.01657  -0.2634  0.5727  1.0000  -1.8731   0.0000   0.0000   0.0000   0.4178
   3.000   1.5379   0.02490   0.01660  -0.2642  0.5696  1.0000  -1.9085   0.0000   0.0000   0.0000   0.4142
   3.250   1.5555   0.02563   0.01739  -0.2626  0.5645  1.0000  -1.9292   0.0000   0.0000   0.0000   0.4107
   3.500   1.5817   0.02603   0.01771  -0.2624  0.5606  1.0000  -1.9587   0.0000   0.0000   0.0000   0.4074
   3.750   1.6140   0.02626   0.01778  -0.2633  0.5578  1.0000  -1.9944   0.0000   0.0000   0.0000   0.4041
   4.000   1.6287   0.02712   0.01875  -0.2613  0.5527  1.0000  -2.0120   0.0000   0.0000   0.0000   0.4009
   4.250   1.6546   0.02752   0.01909  -0.2611  0.5489  1.0000  -2.0414   0.0000   0.0000   0.0000   0.3978
   4.500   1.6874   0.02771   0.01914  -0.2621  0.5462  1.0000  -2.0786   0.0000   0.0000   0.0000   0.3948
   4.750   1.6991   0.02869   0.02026  -0.2596  0.5410  1.0000  -2.0957   0.0000   0.0000   0.0000   0.3918
   5.000   1.7250   0.02907   0.02060  -0.2594  0.5373  1.0000  -2.1294   0.0000   0.0000   0.0000   0.3889
   5.250   1.7585   0.02922   0.02062  -0.2605  0.5346  1.0000  -2.1711   0.0000   0.0000   0.0000   0.3862
   5.500   1.7667   0.03035   0.02193  -0.2575  0.5294  1.0000  -2.1862   0.0000   0.0000   0.0000   0.3833
   5.750   1.7924   0.03074   0.02231  -0.2573  0.5259  1.0000  -2.2198   0.0000   0.0000   0.0000   0.3806
   6.000   1.8263   0.03088   0.02233  -0.2585  0.5233  1.0000  -2.2620   0.0000   0.0000   0.0000   0.3781
   6.250   1.8306   0.03219   0.02385  -0.2548  0.5181  1.0000  -2.2730   0.0000   0.0000   0.0000   0.3753
   6.500   1.8556   0.03261   0.02427  -0.2546  0.5147  1.0000  -2.3068   0.0000   0.0000   0.0000   0.3728
   6.750   1.8897   0.03275   0.02431  -0.2558  0.5122  1.0000  -2.3515   0.0000   0.0000   0.0000   0.3704
   7.000   1.8896   0.03429   0.02608  -0.2516  0.5071  1.0000  -2.3596   0.0000   0.0000   0.0000   0.3677
   7.250   1.9133   0.03475   0.02657  -0.2511  0.5036  1.0000  -2.3936   0.0000   0.0000   0.0000   0.3653
   7.500   1.9492   0.03475   0.02647  -0.2526  0.5012  1.0000  -2.4408   0.0000   0.0000   0.0000   0.3631
   7.750   1.9426   0.03654   0.02852  -0.2474  0.4958  1.0000  -2.4420   0.0000   0.0000   0.0000   0.3604
   8.000   1.9667   0.03696   0.02897  -0.2470  0.4925  1.0000  -2.4765   0.0000   0.0000   0.0000   0.3581
   8.250   2.0049   0.03685   0.02879  -0.2489  0.4901  1.0000  -2.5264   0.0000   0.0000   0.0000   0.3561
   8.500   1.9872   0.03910   0.03133  -0.2421  0.4846  1.0000  -2.5152   0.0000   0.0000   0.0000   0.3533
   8.750   2.0134   0.03939   0.03162  -0.2420  0.4813  1.0000  -2.5523   0.0000   0.0000   0.0000   0.3511
   9.000   2.0561   0.03909   0.03126  -0.2446  0.4790  1.0000  -2.6072   0.0000   0.0000   0.0000   0.3493
   9.250   2.0155   0.04224   0.03474  -0.2344  0.4733  1.0000  -2.5726   0.0000   0.0000   0.0000   0.3462
   9.500   2.0433   0.04253   0.03507  -0.2347  0.4704  1.0000  -2.6134   0.0000   0.0000   0.0000   0.3441
   9.750   2.0941   0.04197   0.03445  -0.2385  0.4683  1.0000  -2.6858   0.0000   0.0000   0.0000   0.3426
  10.000   2.0114   0.04702   0.03987  -0.2227  0.4617  1.0000  -2.6041   0.0000   0.0000   0.0000   0.3390
  10.250   2.0567   0.04626   0.03910  -0.2252  0.4592  1.0000  -2.6885   0.0000   0.0000   0.0000   0.3371
  10.750   1.9903   0.05373   0.04694  -0.2109  0.4491  1.0000  -2.6488   0.0000   0.0000   0.0000   0.3325
  11.000   2.0536   0.05156   0.04475  -0.2149  0.4477  1.0000  -2.7717   0.0000   0.0000   0.0000   0.3306
  11.250   1.8897   0.06742   0.06097  -0.1989  0.4360  1.0000  -2.5512   0.0000   0.0000   0.0000   0.3306
  11.500   1.9624   0.06277   0.05632  -0.2014  0.4361  1.0000  -2.6935   0.0000   0.0000   0.0000   0.3274
  14.250   1.5204   0.16432   0.15889  -0.2058  0.3172  1.0000  -2.0763   0.0000   0.0000   0.0000   0.3548
  14.500   1.5494   0.16255   0.15719  -0.2042  0.3158  1.0000  -2.1610   0.0000   0.0000   0.0000   0.3504
  17.000   1.6882   0.16814   0.16359  -0.2021  0.2692  1.0000  -2.8029   0.0000   0.0000   0.0000   0.3306
  19.000   1.9197   0.14840   0.14467  -0.1892  0.2434  1.0000  -4.0907   0.0000   0.0000   0.0000   0.3019
  19.250   1.9332   0.14902   0.14535  -0.1891  0.2350  1.0000  -4.2449   0.0000   0.0000   0.0000   0.3003
  19.500   1.9503   0.14897   0.14533  -0.1887  0.2263  1.0000  -4.4775   0.0000   0.0000   0.0000   0.2983
  19.750   1.9669   0.14903   0.14537  -0.1884  0.2168  1.0000  -4.7111   0.0000   0.0000   0.0000   0.2965
  20.000   1.9766   0.15021   0.14652  -0.1886  0.2067  1.0000  -4.9141   0.0000   0.0000   0.0000   0.2952
  20.250   1.9677   0.15467   0.15101  -0.1905  0.1961  1.0000  -4.9889   0.0000   0.0000   0.0000   0.2958
  20.500   1.9682   0.15745   0.15378  -0.1916  0.1860  1.0000  -5.1294   0.0000   0.0000   0.0000   0.2955
  20.750   1.9711   0.15978   0.15607  -0.1925  0.1762  1.0000  -5.2885   0.0000   0.0000   0.0000   0.2950
  21.000   1.9757   0.16170   0.15790  -0.1933  0.1669  1.0000  -5.4630   0.0000   0.0000   0.0000   0.2943
  21.250   1.9810   0.16345   0.15955  -0.1939  0.1579  1.0000  -5.6442   0.0000   0.0000   0.0000   0.2935
  21.500   1.9788   0.16661   0.16270  -0.1955  0.1495  1.0000  -5.7675   0.0000   0.0000   0.0000   0.2935
  21.750   1.9783   0.16941   0.16548  -0.1969  0.1416  1.0000  -5.9048   0.0000   0.0000   0.0000   0.2934
  22.000   1.9788   0.17203   0.16806  -0.1982  0.1341  1.0000  -6.0497   0.0000   0.0000   0.0000   0.2932
  22.250   1.9795   0.17458   0.17059  -0.1996  0.1270  1.0000  -6.1969   0.0000   0.0000   0.0000   0.2930
  22.500   1.9821   0.17671   0.17268  -0.2008  0.1204  1.0000  -6.3606   0.0000   0.0000   0.0000   0.2926
  22.750   1.9778   0.18025   0.17630  -0.2030  0.1144  1.0000  -6.4647   0.0000   0.0000   0.0000   0.2931
  23.000   1.9751   0.18349   0.17961  -0.2050  0.1088  1.0000  -6.5807   0.0000   0.0000   0.0000   0.2934
  23.250   1.9748   0.18624   0.18239  -0.2068  0.1034  1.0000  -6.7181   0.0000   0.0000   0.0000   0.2934
  23.500   1.9773   0.18838   0.18453  -0.2082  0.0984  1.0000  -6.8813   0.0000   0.0000   0.0000   0.2931
  23.750   1.9831   0.18982   0.18591  -0.2092  0.0934  1.0000  -7.0761   0.0000   0.0000   0.0000   0.2923
  24.000   1.9784   0.19344   0.18966  -0.2117  0.0891  1.0000  -7.1718   0.0000   0.0000   0.0000   0.2930
  24.250   1.9763   0.19650   0.19282  -0.2140  0.0851  1.0000  -7.2903   0.0000   0.0000   0.0000   0.2933
  24.500   1.9805   0.19823   0.19453  -0.2153  0.0810  1.0000  -7.4717   0.0000   0.0000   0.0000   0.2928
  24.750   1.9827   0.20035   0.19667  -0.2170  0.0771  1.0000  -7.6341   0.0000   0.0000   0.0000   0.2926
  25.000   1.9758   0.20440   0.20090  -0.2201  0.0739  1.0000  -7.7017   0.0000   0.0000   0.0000   0.2936


