xflr5 v6.59

 Calculated polar for: TKV2008

 1 1 Reynolds number fixed          Mach number fixed         

 xtrf =   1.000 (top)        1.000 (bottom)
 Mach =   0.000     Re =     0.040 e 6     Ncrit =   9.000

  alpha     CL        CD       CDp       Cm    Top Xtr Bot Xtr   Cpmin    Chinge    XCp    
 ------- -------- --------- --------- -------- ------- ------- -------- --------- ---------
 -25.000  -0.4548   0.27034   0.26051  -0.0031  1.0000  0.0492  -1.2644   0.0000   0.0000   0.0000   0.2004
 -24.750  -0.4473   0.26832   0.25851  -0.0046  1.0000  0.0498  -1.2564   0.0000   0.0000   0.0000   0.1967
 -24.500  -0.4399   0.26635   0.25656  -0.0062  1.0000  0.0503  -1.2501   0.0000   0.0000   0.0000   0.1929
 -24.250  -0.4325   0.26448   0.25471  -0.0078  1.0000  0.0509  -1.2457   0.0000   0.0000   0.0000   0.1888
 -24.000  -0.4253   0.26270   0.25294  -0.0095  1.0000  0.0512  -1.2469   0.0000   0.0000   0.0000   0.1846
 -23.500  -0.4105   0.25867   0.24897  -0.0125  1.0000  0.0519  -1.2432   0.0000   0.0000   0.0000   0.1762
 -23.250  -0.4027   0.25627   0.24659  -0.0138  1.0000  0.0525  -1.2311   0.0000   0.0000   0.0000   0.1722
 -23.000  -0.3950   0.25412   0.24446  -0.0152  1.0000  0.0532  -1.2226   0.0000   0.0000   0.0000   0.1679
 -22.750  -0.3875   0.25209   0.24246  -0.0166  1.0000  0.0539  -1.2167   0.0000   0.0000   0.0000   0.1633
 -22.500  -0.3802   0.25018   0.24058  -0.0180  1.0000  0.0546  -1.2136   0.0000   0.0000   0.0000   0.1586
 -22.250  -0.3731   0.24845   0.23887  -0.0195  1.0000  0.0551  -1.2140   0.0000   0.0000   0.0000   0.1536
 -21.750  -0.3583   0.24428   0.23477  -0.0221  1.0000  0.0560  -1.2015   0.0000   0.0000   0.0000   0.1436
 -21.500  -0.3505   0.24190   0.23242  -0.0232  1.0000  0.0567  -1.1895   0.0000   0.0000   0.0000   0.1386
 -21.250  -0.3429   0.23977   0.23032  -0.0244  1.0000  0.0575  -1.1840   0.0000   0.0000   0.0000   0.1334
 -21.000  -0.3356   0.23778   0.22836  -0.0256  1.0000  0.0583  -1.1817   0.0000   0.0000   0.0000   0.1279
 -20.750  -0.3285   0.23594   0.22655  -0.0269  1.0000  0.0590  -1.1826   0.0000   0.0000   0.0000   0.1221
 -20.500  -0.3217   0.23431   0.22496  -0.0282  1.0000  0.0594  -1.1874   0.0000   0.0000   0.0000   0.1161
 -20.250  -0.3153   0.23282   0.22352  -0.0295  1.0000  0.0597  -1.1941   0.0000   0.0000   0.0000   0.1100
 -20.000  -0.3070   0.22980   0.22054  -0.0303  1.0000  0.0604  -1.1750   0.0000   0.0000   0.0000   0.1042
 -19.750  -0.2994   0.22747   0.21825  -0.0312  1.0000  0.0613  -1.1634   0.0000   0.0000   0.0000   0.0981
 -19.500  -0.2922   0.22539   0.21620  -0.0322  1.0000  0.0622  -1.1561   0.0000   0.0000   0.0000   0.0918
 -19.250  -0.2853   0.22342   0.21428  -0.0332  1.0000  0.0630  -1.1524   0.0000   0.0000   0.0000   0.0851
 -18.500  -0.2655   0.21768   0.20869  -0.0361  1.0000  0.0649  -1.1462   0.0000   0.0000   0.0000   0.0643
 -18.250  -0.2581   0.21522   0.20627  -0.0367  1.0000  0.0659  -1.1350   0.0000   0.0000   0.0000   0.0572
 -18.000  -0.2513   0.21315   0.20425  -0.0375  1.0000  0.0671  -1.1309   0.0000   0.0000   0.0000   0.0499
 -17.750  -0.2451   0.21135   0.20250  -0.0383  1.0000  0.0681  -1.1327   0.0000   0.0000   0.0000   0.0424
 -17.500  -0.2397   0.20993   0.20114  -0.0391  1.0000  0.0689  -1.1412   0.0000   0.0000   0.0000   0.0349
 -17.250  -0.2348   0.20864   0.19992  -0.0400  1.0000  0.0693  -1.1520   0.0000   0.0000   0.0000   0.0276
 -17.000  -0.2268   0.20542   0.19676  -0.0403  1.0000  0.0702  -1.1306   0.0000   0.0000   0.0000   0.0195
 -16.750  -0.2203   0.20318   0.19457  -0.0407  1.0000  0.0714  -1.1208   0.0000   0.0000   0.0000   0.0116
 -16.500  -0.2145   0.20124   0.19269  -0.0411  1.0000  0.0726  -1.1170   0.0000   0.0000   0.0000   0.0039
 -16.250  -0.2095   0.19960   0.19111  -0.0417  1.0000  0.0736  -1.1187   0.0000   0.0000   0.0000  -0.0036
 -16.000  -0.2054   0.19838   0.18997  -0.0422  1.0000  0.0743  -1.1272   0.0000   0.0000   0.0000  -0.0104
 -15.750  -0.2012   0.19681   0.18849  -0.0427  1.0000  0.0748  -1.1314   0.0000   0.0000   0.0000  -0.0169
 -15.500  -0.1943   0.19382   0.18556  -0.0426  1.0000  0.0759  -1.1094   0.0000   0.0000   0.0000  -0.0250
 -15.250  -0.1892   0.19175   0.18357  -0.0426  1.0000  0.0772  -1.0990   0.0000   0.0000   0.0000  -0.0317
 -15.000  -0.1851   0.19004   0.18194  -0.0427  1.0000  0.0785  -1.0952   0.0000   0.0000   0.0000  -0.0373
 -14.750  -0.1823   0.18873   0.18072  -0.0428  1.0000  0.0796  -1.0983   0.0000   0.0000   0.0000  -0.0411
 -14.500  -0.1811   0.18796   0.18003  -0.0429  1.0000  0.0803  -1.1139   0.0000   0.0000   0.0000  -0.0425
 -14.250  -0.1776   0.18577   0.17795  -0.0425  1.0000  0.0810  -1.1104   0.0000   0.0000   0.0000  -0.0451
 -14.000  -0.1736   0.18346   0.17573  -0.0419  1.0000  0.0824  -1.0971   0.0000   0.0000   0.0000  -0.0470
 -13.750  -0.1721   0.18193   0.17431  -0.0412  1.0000  0.0839  -1.0954   0.0000   0.0000   0.0000  -0.0448
 -13.500  -0.1726   0.18092   0.17342  -0.0405  1.0000  0.0853  -1.1018   0.0000   0.0000   0.0000  -0.0383
 -13.250  -0.1758   0.18056   0.17318  -0.0395  1.0000  0.0863  -1.1173   0.0000   0.0000   0.0000  -0.0266
 -13.000  -0.1821   0.18086   0.17362  -0.0384  1.0000  0.0868  -1.1398   0.0000   0.0000   0.0000  -0.0092
 -12.750  -0.1839   0.17884   0.17174  -0.0363  1.0000  0.0877  -1.1265   0.0000   0.0000   0.0000   0.0052
 -12.500  -0.1893   0.17800   0.17103  -0.0341  1.0000  0.0889  -1.1215   0.0000   0.0000   0.0000   0.0251
 -12.250  -0.1976   0.17784   0.17101  -0.0317  1.0000  0.0900  -1.1250   0.0000   0.0000   0.0000   0.0475
 -12.000  -0.2074   0.17800   0.17130  -0.0294  1.0000  0.0911  -1.1331   0.0000   0.0000   0.0000   0.0690
 -11.750  -0.2176   0.17834   0.17176  -0.0273  1.0000  0.0921  -1.1449   0.0000   0.0000   0.0000   0.0881
 -11.500  -0.2281   0.17885   0.17238  -0.0255  1.0000  0.0929  -1.1610   0.0000   0.0000   0.0000   0.1043
 -11.250  -0.2389   0.17953   0.17318  -0.0240  1.0000  0.0934  -1.1815   0.0000   0.0000   0.0000   0.1179
 -11.000  -0.2494   0.18026   0.17402  -0.0227  1.0000  0.0937  -1.2041   0.0000   0.0000   0.0000   0.1294
 -10.750  -0.2508   0.17795   0.17179  -0.0209  1.0000  0.0948  -1.1823   0.0000   0.0000   0.0000   0.1375
 -10.500  -0.2553   0.17700   0.17092  -0.0195  1.0000  0.0961  -1.1764   0.0000   0.0000   0.0000   0.1455
 -10.250  -0.2606   0.17639   0.17038  -0.0183  1.0000  0.0975  -1.1773   0.0000   0.0000   0.0000   0.1527
 -10.000  -0.2665   0.17596   0.17002  -0.0173  1.0000  0.0988  -1.1834   0.0000   0.0000   0.0000   0.1591
  -9.750  -0.2732   0.17581   0.16994  -0.0165  1.0000  0.1000  -1.1960   0.0000   0.0000   0.0000   0.1648
  -9.500  -0.2812   0.17603   0.17024  -0.0158  1.0000  0.1008  -1.2158   0.0000   0.0000   0.0000   0.1700
  -9.250  -0.2657   0.17321   0.16743  -0.0194  0.9951  0.1022  -1.1986   0.0000   0.0000   0.0000   0.1521
  -9.000  -0.2431   0.16993   0.16413  -0.0239  0.9874  0.1054  -1.1647   0.0000   0.0000   0.0000   0.1242
  -8.750  -0.2309   0.16853   0.16274  -0.0278  0.9803  0.1081  -1.1686   0.0000   0.0000   0.0000   0.1007
  -8.500  -0.2276   0.16861   0.16285  -0.0309  0.9739  0.1092  -1.2002   0.0000   0.0000   0.0000   0.0851
  -8.250  -0.2070   0.16408   0.15832  -0.0332  0.9669  0.1119  -1.1590   0.0000   0.0000   0.0000   0.0574
  -8.000  -0.1987   0.16238   0.15664  -0.0350  0.9605  0.1150  -1.1544   0.0000   0.0000   0.0000   0.0406
  -7.750  -0.1987   0.16206   0.15635  -0.0364  0.9549  0.1171  -1.1742   0.0000   0.0000   0.0000   0.0341
  -7.250  -0.1817   0.15781   0.15215  -0.0392  0.9435  0.1218  -1.1553   0.0000   0.0000   0.0000  -0.0005
  -7.000  -0.1852   0.15710   0.15149  -0.0386  0.9390  0.1244  -1.1612   0.0000   0.0000   0.0000   0.0078
  -6.750  -0.1900   0.15734   0.15177  -0.0392  0.9353  0.1264  -1.1850   0.0000   0.0000   0.0000   0.0117
  -6.500  -0.2055   0.15832   0.15284  -0.0375  0.9335  0.1270  -1.2169   0.0000   0.0000   0.0000   0.0382
  -6.000  -0.3395   0.16159   0.15659  -0.0049  1.0000  0.1207  -1.2764   0.0000   0.0000   0.0000   0.2203
  -5.750  -0.3434   0.16039   0.15545  -0.0040  1.0000  0.1231  -1.2770   0.0000   0.0000   0.0000   0.2236
  -5.500  -0.3513   0.15984   0.15494  -0.0031  1.0000  0.1252  -1.2924   0.0000   0.0000   0.0000   0.2268
  -5.250  -0.3637   0.15997   0.15513  -0.0022  1.0000  0.1265  -1.3218   0.0000   0.0000   0.0000   0.2305
  -5.000  -0.3796   0.16049   0.15572  -0.0010  1.0000  0.1271  -1.3587   0.0000   0.0000   0.0000   0.2348
  -4.750  -0.3706   0.15651   0.15178  -0.0000  1.0000  0.1296  -1.3185   0.0000   0.0000   0.0000   0.2371
  -4.500  -0.3750   0.15513   0.15044   0.0012  1.0000  0.1322  -1.3162   0.0000   0.0000   0.0000   0.2407
  -4.250  -0.3842   0.15442   0.14977   0.0024  1.0000  0.1344  -1.3304   0.0000   0.0000   0.0000   0.2442
  -4.000  -0.3940   0.15418   0.14959   0.0022  1.0000  0.1362  -1.3598   0.0000   0.0000   0.0000   0.2440
  -3.500  -0.3947   0.14997   0.14547   0.0032  0.9997  0.1403  -1.3459   0.0000   0.0000   0.0000   0.2469
  -3.250  -0.3876   0.14869   0.14420   0.0008  0.9965  0.1445  -1.3416   0.0000   0.0000   0.0000   0.2408
  -3.000  -0.3819   0.14891   0.14442  -0.0062  0.9927  0.1472  -1.3864   0.0000   0.0000   0.0000   0.2223
  -2.750  -0.3734   0.14521   0.14076  -0.0036  0.9894  0.1505  -1.3342   0.0000   0.0000   0.0000   0.2287
  -2.500  -0.3623   0.14389   0.13944  -0.0071  0.9850  0.1559  -1.3271   0.0000   0.0000   0.0000   0.2184
  -2.250  -0.3517   0.14224   0.13781  -0.0119  0.9803  0.1590  -1.3365   0.0000   0.0000   0.0000   0.2039
  -2.000  -0.3442   0.13975   0.13534  -0.0112  0.9761  0.1635  -1.3024   0.0000   0.0000   0.0000   0.2051
  -1.500  -0.3152   0.13611   0.13170  -0.0185  0.9658  0.1742  -1.2726   0.0000   0.0000   0.0000   0.1782
  -1.250  -0.2919   0.13460   0.13017  -0.0268  0.9596  0.1817  -1.2798   0.0000   0.0000   0.0000   0.1442
  -1.000  -0.2856   0.13213   0.12772  -0.0253  0.9541  0.1874  -1.2509   0.0000   0.0000   0.0000   0.1475
  -0.750  -0.2641   0.13027   0.12584  -0.0311  0.9481  0.1953  -1.2450   0.0000   0.0000   0.0000   0.1174
  -0.250  -0.2083   0.12716   0.12267  -0.0447  0.9353  0.2173  -1.2146   0.0000   0.0000   0.0000   0.0171
   3.750   0.5649   0.12327   0.11615  -0.1931  0.8135  0.2004  -0.8031   0.0000   0.0000   0.0000   0.5892
   4.000   0.6111   0.12506   0.11737  -0.2002  0.8048  0.1929  -0.8073   0.0000   0.0000   0.0000   0.5742
   4.250   0.6551   0.12790   0.11989  -0.2056  0.7990  0.1965  -0.8109   0.0000   0.0000   0.0000   0.5598
   4.500   0.6911   0.13006   0.12158  -0.2094  0.7899  0.2043  -0.8296   0.0000   0.0000   0.0000   0.5484
   4.750   0.7122   0.13175   0.12304  -0.2108  0.7818  0.2157  -0.8382   0.0000   0.0000   0.0000   0.5408
   5.000   0.7522   0.13525   0.12621  -0.2142  0.7761  0.2445  -0.8641   0.0000   0.0000   0.0000   0.5289
   5.250   0.7649   0.13627   0.12713  -0.2141  0.7668  0.2746  -0.8661   0.0000   0.0000   0.0000   0.5236
   5.500   0.7921   0.13864   0.12969  -0.2161  0.7608  0.3786  -0.8791   0.0000   0.0000   0.0000   0.5159
   5.750   0.8226   0.13976   0.13167  -0.2172  0.7531  1.0000  -0.8961   0.0000   0.0000   0.0000   0.5066
   6.000   0.8336   0.14164   0.13317  -0.2171  0.7448  1.0000  -0.8989   0.0000   0.0000   0.0000   0.5024
   6.250   0.8649   0.14582   0.13690  -0.2190  0.7391  1.0000  -0.9227   0.0000   0.0000   0.0000   0.4947
   6.500   0.8699   0.14679   0.13771  -0.2182  0.7294  1.0000  -0.9209   0.0000   0.0000   0.0000   0.4919
   6.750   0.8820   0.14899   0.13972  -0.2184  0.7225  1.0000  -0.9252   0.0000   0.0000   0.0000   0.4880
   7.000   0.9064   0.15231   0.14280  -0.2196  0.7154  1.0000  -0.9436   0.0000   0.0000   0.0000   0.4822
   7.250   0.9123   0.15364   0.14402  -0.2191  0.7070  1.0000  -0.9433   0.0000   0.0000   0.0000   0.4796
   7.500   0.9400   0.15784   0.14800  -0.2207  0.7019  1.0000  -0.9664   0.0000   0.0000   0.0000   0.4737
   7.750   0.9438   0.15859   0.14869  -0.2201  0.6929  1.0000  -0.9643   0.0000   0.0000   0.0000   0.4716
   8.000   0.9577   0.16116   0.15115  -0.2206  0.6872  1.0000  -0.9728   0.0000   0.0000   0.0000   0.4682
   8.250   0.9748   0.16366   0.15355  -0.2212  0.6794  1.0000  -0.9859   0.0000   0.0000   0.0000   0.4642
   8.500   0.9830   0.16542   0.15525  -0.2213  0.6726  1.0000  -0.9910   0.0000   0.0000   0.0000   0.4619
   8.750   1.0057   0.16889   0.15862  -0.2223  0.6662  1.0000  -1.0129   0.0000   0.0000   0.0000   0.4573
   9.000   1.0100   0.17000   0.15970  -0.2222  0.6589  1.0000  -1.0133   0.0000   0.0000   0.0000   0.4557
   9.250   1.0353   0.17411   0.16372  -0.2235  0.6534  1.0000  -1.0374   0.0000   0.0000   0.0000   0.4511
   9.500   1.0369   0.17467   0.16427  -0.2232  0.6457  1.0000  -1.0350   0.0000   0.0000   0.0000   0.4500
   9.750   1.0641   0.17939   0.16893  -0.2247  0.6409  1.0000  -1.0648   0.0000   0.0000   0.0000   0.4453
  10.000   1.0637   0.17938   0.16892  -0.2244  0.6326  1.0000  -1.0626   0.0000   0.0000   0.0000   0.4445
  10.250   1.0835   0.18314   0.17265  -0.2254  0.6280  1.0000  -1.0839   0.0000   0.0000   0.0000   0.4411
  10.500   1.0900   0.18414   0.17366  -0.2256  0.6198  1.0000  -1.0890   0.0000   0.0000   0.0000   0.4395
  10.750   1.1039   0.18701   0.17652  -0.2264  0.6149  1.0000  -1.1051   0.0000   0.0000   0.0000   0.4371
  11.000   1.1161   0.18898   0.17850  -0.2269  0.6071  1.0000  -1.1212   0.0000   0.0000   0.0000   0.4347
  11.250   1.1254   0.19110   0.18064  -0.2276  0.6016  1.0000  -1.1323   0.0000   0.0000   0.0000   0.4331
  11.500   1.1420   0.19393   0.18348  -0.2284  0.5944  1.0000  -1.1547   0.0000   0.0000   0.0000   0.4303
  11.750   1.1480   0.19542   0.18500  -0.2290  0.5883  1.0000  -1.1631   0.0000   0.0000   0.0000   0.4292
  12.000   1.1682   0.19913   0.18873  -0.2299  0.5819  1.0000  -1.1917   0.0000   0.0000   0.0000   0.4260
  12.250   1.1710   0.19993   0.18958  -0.2305  0.5749  1.0000  -1.1947   0.0000   0.0000   0.0000   0.4254
  12.500   1.1952   0.20481   0.19449  -0.2316  0.5693  1.0000  -1.2283   0.0000   0.0000   0.0000   0.4218
  12.750   1.1948   0.20467   0.19440  -0.2321  0.5615  1.0000  -1.2283   0.0000   0.0000   0.0000   0.4217
  13.000   1.2102   0.20812   0.19791  -0.2331  0.5563  1.0000  -1.2511   0.0000   0.0000   0.0000   0.4195
  13.250   1.2194   0.20976   0.19960  -0.2339  0.5483  1.0000  -1.2654   0.0000   0.0000   0.0000   0.4181
  13.500   1.2269   0.21169   0.20159  -0.2349  0.5422  1.0000  -1.2772   0.0000   0.0000   0.0000   0.4172
  13.750   1.2461   0.21562   0.20558  -0.2358  0.5352  1.0000  -1.3086   0.0000   0.0000   0.0000   0.4144
  14.000   1.2483   0.21623   0.20627  -0.2368  0.5277  1.0000  -1.3107   0.0000   0.0000   0.0000   0.4142
  14.250   1.2639   0.21994   0.21004  -0.2379  0.5222  1.0000  -1.3384   0.0000   0.0000   0.0000   0.4121
  14.500   1.2728   0.22164   0.21183  -0.2389  0.5139  1.0000  -1.3557   0.0000   0.0000   0.0000   0.4110
  14.750   1.2785   0.22331   0.21356  -0.2401  0.5072  1.0000  -1.3656   0.0000   0.0000   0.0000   0.4105
  15.000   1.2998   0.22831   0.21866  -0.2411  0.5007  1.0000  -1.4035   0.0000   0.0000   0.0000   0.4075
  15.250   1.3010   0.22842   0.21885  -0.2423  0.4925  1.0000  -1.4040   0.0000   0.0000   0.0000   0.4077
  15.500   1.3084   0.23055   0.22106  -0.2436  0.4860  1.0000  -1.4157   0.0000   0.0000   0.0000   0.4070
  15.750   1.3289   0.23548   0.22611  -0.2445  0.4791  1.0000  -1.4560   0.0000   0.0000   0.0000   0.4042
  16.000   1.3292   0.23551   0.22621  -0.2460  0.4710  1.0000  -1.4561   0.0000   0.0000   0.0000   0.4047
  16.250   1.3369   0.23779   0.22858  -0.2475  0.4645  1.0000  -1.4717   0.0000   0.0000   0.0000   0.4041
  16.500   1.3567   0.24276   0.23369  -0.2483  0.4575  1.0000  -1.5141   0.0000   0.0000   0.0000   0.4013
  16.750   1.3569   0.24278   0.23377  -0.2501  0.4495  1.0000  -1.5150   0.0000   0.0000   0.0000   0.4019
  17.000   1.3641   0.24506   0.23614  -0.2516  0.4432  1.0000  -1.5308   0.0000   0.0000   0.0000   0.4015
  17.250   1.3822   0.24986   0.24105  -0.2525  0.4362  1.0000  -1.5721   0.0000   0.0000   0.0000   0.3990
  17.500   1.3840   0.25021   0.24151  -0.2543  0.4282  1.0000  -1.5758   0.0000   0.0000   0.0000   0.3994
  17.750   1.3902   0.25232   0.24370  -0.2561  0.4219  1.0000  -1.5881   0.0000   0.0000   0.0000   0.3992
  18.000   1.4066   0.25689   0.24840  -0.2571  0.4152  1.0000  -1.6295   0.0000   0.0000   0.0000   0.3971
  18.250   1.4098   0.25763   0.24923  -0.2589  0.4073  1.0000  -1.6360   0.0000   0.0000   0.0000   0.3973
  18.500   1.4154   0.25965   0.25135  -0.2608  0.4010  1.0000  -1.6468   0.0000   0.0000   0.0000   0.3972
  18.750   1.4306   0.26405   0.25587  -0.2619  0.3945  1.0000  -1.6844   0.0000   0.0000   0.0000   0.3953
  19.000   1.4347   0.26509   0.25701  -0.2638  0.3867  1.0000  -1.6933   0.0000   0.0000   0.0000   0.3954
  19.250   1.4397   0.26703   0.25904  -0.2658  0.3805  1.0000  -1.7041   0.0000   0.0000   0.0000   0.3955
  19.500   1.4542   0.27141   0.26355  -0.2669  0.3743  1.0000  -1.7417   0.0000   0.0000   0.0000   0.3937
  19.750   1.4583   0.27246   0.26470  -0.2690  0.3667  1.0000  -1.7489   0.0000   0.0000   0.0000   0.3938
  20.000   1.4633   0.27448   0.26681  -0.2711  0.3608  1.0000  -1.7585   0.0000   0.0000   0.0000   0.3939
  20.250   1.4775   0.27893   0.27138  -0.2722  0.3545  1.0000  -1.7974   0.0000   0.0000   0.0000   0.3921
  20.500   1.4809   0.27982   0.27237  -0.2744  0.3471  1.0000  -1.8018   0.0000   0.0000   0.0000   0.3925
  20.750   1.4861   0.28197   0.27461  -0.2766  0.3414  1.0000  -1.8153   0.0000   0.0000   0.0000   0.3926
  21.000   1.5007   0.28663   0.27940  -0.2775  0.3350  1.0000  -1.8608   0.0000   0.0000   0.0000   0.3906
  21.250   1.5024   0.28709   0.27995  -0.2801  0.3281  1.0000  -1.8626   0.0000   0.0000   0.0000   0.3914
  21.500   1.5086   0.28958   0.28253  -0.2822  0.3228  1.0000  -1.8803   0.0000   0.0000   0.0000   0.3913


