xflr5 v6.59

 Calculated polar for: TKV2008

 1 1 Reynolds number fixed          Mach number fixed         

 xtrf =   1.000 (top)        1.000 (bottom)
 Mach =   0.000     Re =     0.290 e 6     Ncrit =   9.000

  alpha     CL        CD       CDp       Cm    Top Xtr Bot Xtr   Cpmin    Chinge    XCp    
 ------- -------- --------- --------- -------- ------- ------- -------- --------- ---------
 -25.000  -0.4663   0.26861   0.26499   0.0030  1.0000  0.0105  -1.3526   0.0000   0.0000   0.0000   0.2148
 -24.750  -0.4591   0.26654   0.26293   0.0015  1.0000  0.0106  -1.3334   0.0000   0.0000   0.0000   0.2117
 -24.500  -0.4518   0.26447   0.26086  -0.0000  1.0000  0.0107  -1.3208   0.0000   0.0000   0.0000   0.2085
 -24.250  -0.4445   0.26239   0.25879  -0.0015  1.0000  0.0108  -1.3096   0.0000   0.0000   0.0000   0.2051
 -24.000  -0.4371   0.26028   0.25668  -0.0030  1.0000  0.0109  -1.2997   0.0000   0.0000   0.0000   0.2017
 -23.750  -0.4297   0.25814   0.25456  -0.0044  1.0000  0.0111  -1.2906   0.0000   0.0000   0.0000   0.1981
 -23.500  -0.4223   0.25599   0.25242  -0.0059  1.0000  0.0112  -1.2820   0.0000   0.0000   0.0000   0.1945
 -23.250  -0.4149   0.25383   0.25026  -0.0073  1.0000  0.0113  -1.2776   0.0000   0.0000   0.0000   0.1908
 -23.000  -0.4075   0.25164   0.24808  -0.0086  1.0000  0.0114  -1.2775   0.0000   0.0000   0.0000   0.1870
 -21.000  -0.3484   0.23382   0.23033  -0.0190  1.0000  0.0120  -1.3140   0.0000   0.0000   0.0000   0.1519
 -20.750  -0.3412   0.23156   0.22809  -0.0200  1.0000  0.0121  -1.2853   0.0000   0.0000   0.0000   0.1476
 -20.500  -0.3341   0.22940   0.22594  -0.0211  1.0000  0.0122  -1.2697   0.0000   0.0000   0.0000   0.1430
 -20.250  -0.3269   0.22723   0.22379  -0.0221  1.0000  0.0123  -1.2589   0.0000   0.0000   0.0000   0.1382
 -20.000  -0.3197   0.22508   0.22166  -0.0232  1.0000  0.0124  -1.2509   0.0000   0.0000   0.0000   0.1332
 -19.750  -0.3126   0.22292   0.21951  -0.0242  1.0000  0.0125  -1.2447   0.0000   0.0000   0.0000   0.1280
 -19.500  -0.3055   0.22073   0.21734  -0.0251  1.0000  0.0126  -1.2396   0.0000   0.0000   0.0000   0.1227
 -19.250  -0.2984   0.21854   0.21516  -0.0261  1.0000  0.0128  -1.2354   0.0000   0.0000   0.0000   0.1173
 -19.000  -0.2915   0.21633   0.21297  -0.0270  1.0000  0.0129  -1.2317   0.0000   0.0000   0.0000   0.1118
 -18.750  -0.2846   0.21412   0.21078  -0.0278  1.0000  0.0131  -1.2287   0.0000   0.0000   0.0000   0.1061
 -18.500  -0.2778   0.21190   0.20857  -0.0287  1.0000  0.0132  -1.2263   0.0000   0.0000   0.0000   0.1004
 -18.250  -0.2711   0.20968   0.20638  -0.0294  1.0000  0.0134  -1.2249   0.0000   0.0000   0.0000   0.0945
 -17.000  -0.2398   0.19866   0.19546  -0.0330  1.0000  0.0137  -1.2797   0.0000   0.0000   0.0000   0.0636
 -16.750  -0.2339   0.19648   0.19331  -0.0333  1.0000  0.0138  -1.2535   0.0000   0.0000   0.0000   0.0585
 -16.500  -0.2283   0.19441   0.19126  -0.0336  1.0000  0.0139  -1.2372   0.0000   0.0000   0.0000   0.0532
 -16.250  -0.2229   0.19236   0.18924  -0.0339  1.0000  0.0140  -1.2267   0.0000   0.0000   0.0000   0.0481
 -16.000  -0.2178   0.19035   0.18727  -0.0341  1.0000  0.0142  -1.2198   0.0000   0.0000   0.0000   0.0433
 -15.750  -0.2131   0.18838   0.18532  -0.0343  1.0000  0.0143  -1.2152   0.0000   0.0000   0.0000   0.0390
 -15.500  -0.2089   0.18644   0.18342  -0.0343  1.0000  0.0145  -1.2125   0.0000   0.0000   0.0000   0.0356
 -15.250  -0.2052   0.18458   0.18159  -0.0342  1.0000  0.0146  -1.2114   0.0000   0.0000   0.0000   0.0333
 -15.000  -0.1940   0.18182   0.17886  -0.0363  0.9992  0.0148  -1.2068   0.0000   0.0000   0.0000   0.0104
 -14.500  -0.0392   0.16888   0.16597  -0.0674  0.9826  0.0156  -1.0320   0.0000   0.0000   0.0000  -1.7008
 -14.250  -0.0255   0.16556   0.16264  -0.0704  0.9807  0.0158  -1.0049   0.0000   0.0000   0.0000  -2.8792
 -14.000  -0.0110   0.16221   0.15928  -0.0738  0.9794  0.0160  -0.9873   0.0000   0.0000   0.0000  -7.3305
 -13.750   0.0022   0.15882   0.15589  -0.0766  0.9763  0.0163  -0.9827   0.0000   0.0000   0.0000  38.6323
 -13.500   0.0167   0.15534   0.15240  -0.0799  0.9740  0.0166  -0.9859   0.0000   0.0000   0.0000   5.5864
 -13.250   0.0324   0.15173   0.14878  -0.0835  0.9725  0.0168  -0.9922   0.0000   0.0000   0.0000   3.1155
 -13.000   0.0451   0.14827   0.14532  -0.0860  0.9676  0.0171  -1.0044   0.0000   0.0000   0.0000   2.3640
 -12.750   0.0610   0.14458   0.14162  -0.0897  0.9654  0.0172  -1.0278   0.0000   0.0000   0.0000   1.8740
 -11.500   0.0746   0.13007   0.12706  -0.0942  0.9468  0.0177  -1.1154   0.0000   0.0000   0.0000   1.6449
 -11.250   0.0841   0.12729   0.12429  -0.0951  0.9302  0.0179  -1.1001   0.0000   0.0000   0.0000   1.4947
 -11.000   0.0980   0.12413   0.12112  -0.0972  0.9152  0.0182  -1.0876   0.0000   0.0000   0.0000   1.3384
 -10.750   0.1193   0.12028   0.11724  -0.1015  0.9040  0.0186  -1.0771   0.0000   0.0000   0.0000   1.1800
 -10.500   0.1469   0.11589   0.11279  -0.1078  0.8943  0.0191  -1.0825   0.0000   0.0000   0.0000   1.0488
 -10.250   0.1810   0.11095   0.10777  -0.1165  0.8849  0.0193  -1.1083   0.0000   0.0000   0.0000   0.9468
 -10.000   0.2258   0.10558   0.10229  -0.1269  0.8750  0.0198  -1.0364   0.0000   0.0000   0.0000   0.8559
  -9.750   0.2787   0.09986   0.09641  -0.1404  0.8620  0.0207  -1.0154   0.0000   0.0000   0.0000   0.7903
  -9.500   0.3292   0.09456   0.09088  -0.1540  0.8413  0.0212  -1.0662   0.0000   0.0000   0.0000   0.7499
  -9.250   0.3602   0.09099   0.08706  -0.1603  0.8144  0.0215  -1.0187   0.0000   0.0000   0.0000   0.7243
  -9.000   0.3764   0.08874   0.08462  -0.1625  0.7916  0.0218  -0.9898   0.0000   0.0000   0.0000   0.7092
  -8.750   0.3881   0.08678   0.08252  -0.1636  0.7741  0.0223  -0.9981   0.0000   0.0000   0.0000   0.6975
  -8.500   0.3977   0.08490   0.08055  -0.1642  0.7596  0.0228  -1.0059   0.0000   0.0000   0.0000   0.6876
  -8.250   0.4061   0.08306   0.07862  -0.1649  0.7474  0.0232  -1.0149   0.0000   0.0000   0.0000   0.6797
  -8.000   0.4141   0.08118   0.07667  -0.1656  0.7368  0.0234  -1.0449   0.0000   0.0000   0.0000   0.6724
  -7.750   0.4247   0.07932   0.07474  -0.1656  0.7271  0.0237  -1.0286   0.0000   0.0000   0.0000   0.6612
  -7.500   0.4336   0.07760   0.07298  -0.1657  0.7178  0.0241  -1.0373   0.0000   0.0000   0.0000   0.6522
  -7.250   0.4423   0.07585   0.07120  -0.1659  0.7096  0.0247  -1.0452   0.0000   0.0000   0.0000   0.6441
  -7.000   0.4504   0.07407   0.06935  -0.1665  0.7024  0.0253  -1.0514   0.0000   0.0000   0.0000   0.6377
  -6.750   0.4559   0.07233   0.06762  -0.1668  0.6950  0.0256  -1.0555   0.0000   0.0000   0.0000   0.6328
  -6.500   0.4671   0.07055   0.06579  -0.1667  0.6888  0.0260  -1.0664   0.0000   0.0000   0.0000   0.6228
  -6.250   0.4746   0.06896   0.06420  -0.1663  0.6820  0.0267  -1.0745   0.0000   0.0000   0.0000   0.6155
  -6.000   0.4808   0.06732   0.06252  -0.1666  0.6765  0.0276  -1.0799   0.0000   0.0000   0.0000   0.6106
  -5.750   0.4838   0.06576   0.06099  -0.1658  0.6703  0.0280  -1.0840   0.0000   0.0000   0.0000   0.6060
  -5.500   0.4934   0.06425   0.05942  -0.1655  0.6654  0.0286  -1.0943   0.0000   0.0000   0.0000   0.5977
  -5.250   0.5002   0.06274   0.05795  -0.1653  0.6597  0.0293  -1.1009   0.0000   0.0000   0.0000   0.5919
  -5.000   0.5095   0.06082   0.05601  -0.1680  0.6548  0.0302  -1.1047   0.0000   0.0000   0.0000   0.5904
  -4.750   0.5214   0.05905   0.05423  -0.1678  0.6498  0.0306  -1.1163   0.0000   0.0000   0.0000   0.5816
  -4.500   0.5339   0.05737   0.05255  -0.1685  0.6446  0.0314  -1.1268   0.0000   0.0000   0.0000   0.5745
  -4.250   0.5558   0.05466   0.04978  -0.1754  0.6404  0.0327  -1.1351   0.0000   0.0000   0.0000   0.5737
  -4.000   0.5664   0.05320   0.04835  -0.1737  0.6352  0.0332  -1.1483   0.0000   0.0000   0.0000   0.5640
  -3.750   0.5865   0.05120   0.04631  -0.1765  0.6308  0.0346  -1.1631   0.0000   0.0000   0.0000   0.5574
  -3.500   0.6125   0.04857   0.04364  -0.1818  0.6267  0.0359  -1.1787   0.0000   0.0000   0.0000   0.5525
  -3.250   0.6501   0.04517   0.04020  -0.1912  0.6218  0.0383  -1.1979   0.0000   0.0000   0.0000   0.5490
  -1.250   1.0702   0.01857   0.01106  -0.2608  0.5871  0.0419  -1.4674   0.0000   0.0000   0.0000   0.4936
  -1.000   1.1079   0.01762   0.00970  -0.2628  0.5831  0.0407  -1.4981   0.0000   0.0000   0.0000   0.4866
  -0.750   1.1406   0.01712   0.00902  -0.2638  0.5792  0.0423  -1.5265   0.0000   0.0000   0.0000   0.4802
  -0.500   1.1709   0.01670   0.00849  -0.2643  0.5748  0.0435  -1.5534   0.0000   0.0000   0.0000   0.4741
  -0.250   1.2019   0.01644   0.00814  -0.2649  0.5711  0.0468  -1.5830   0.0000   0.0000   0.0000   0.4684
   0.000   1.2326   0.01623   0.00791  -0.2655  0.5674  0.0499  -1.6121   0.0000   0.0000   0.0000   0.4629
   0.250   1.2614   0.01608   0.00779  -0.2658  0.5630  0.0557  -1.6402   0.0000   0.0000   0.0000   0.4577
   0.500   1.2925   0.01597   0.00767  -0.2665  0.5593  0.0649  -1.6702   0.0000   0.0000   0.0000   0.4527
   0.750   1.3250   0.01570   0.00766  -0.2677  0.5553  0.1455  -1.7008   0.0000   0.0000   0.0000   0.4481
   1.000   1.3524   0.01575   0.00788  -0.2678  0.5511  0.2571  -1.7284   0.0000   0.0000   0.0000   0.4436
   1.250   1.3809   0.01586   0.00798  -0.2680  0.5477  0.2971  -1.7575   0.0000   0.0000   0.0000   0.4392
   1.500   1.4086   0.01596   0.00816  -0.2681  0.5442  0.3475  -1.7863   0.0000   0.0000   0.0000   0.4350
   1.750   1.4358   0.01594   0.00840  -0.2682  0.5401  0.4407  -1.8147   0.0000   0.0000   0.0000   0.4310
   2.000   1.4604   0.01559   0.00872  -0.2675  0.5367  0.8282  -1.8441   0.0000   0.0000   0.0000   0.4269
   2.250   1.4833   0.01562   0.00872  -0.2664  0.5334  1.0000  -1.8722   0.0000   0.0000   0.0000   0.4229
   2.500   1.5084   0.01583   0.00889  -0.2659  0.5291  1.0000  -1.9017   0.0000   0.0000   0.0000   0.4191
   2.750   1.5357   0.01605   0.00899  -0.2659  0.5256  1.0000  -1.9333   0.0000   0.0000   0.0000   0.4155
   3.000   1.5637   0.01631   0.00914  -0.2660  0.5224  1.0000  -1.9654   0.0000   0.0000   0.0000   0.4120
   3.250   1.5877   0.01655   0.00938  -0.2654  0.5184  1.0000  -1.9941   0.0000   0.0000   0.0000   0.4085
   3.500   1.6142   0.01678   0.00954  -0.2652  0.5149  1.0000  -2.0252   0.0000   0.0000   0.0000   0.4052
   3.750   1.6428   0.01705   0.00969  -0.2655  0.5119  1.0000  -2.0583   0.0000   0.0000   0.0000   0.4021
   4.000   1.6650   0.01730   0.00999  -0.2645  0.5077  1.0000  -2.0854   0.0000   0.0000   0.0000   0.3988
   4.250   1.6904   0.01754   0.01020  -0.2642  0.5041  1.0000  -2.1158   0.0000   0.0000   0.0000   0.3958
   4.500   1.7185   0.01780   0.01035  -0.2644  0.5010  1.0000  -2.1488   0.0000   0.0000   0.0000   0.3929
   4.750   1.7399   0.01808   0.01069  -0.2633  0.4970  1.0000  -2.1753   0.0000   0.0000   0.0000   0.3899
   5.000   1.7644   0.01833   0.01094  -0.2628  0.4934  1.0000  -2.2051   0.0000   0.0000   0.0000   0.3870
   5.250   1.7918   0.01861   0.01113  -0.2630  0.4904  1.0000  -2.2415   0.0000   0.0000   0.0000   0.3843
   5.500   1.8132   0.01892   0.01150  -0.2619  0.4866  1.0000  -2.2720   0.0000   0.0000   0.0000   0.3815
   5.750   1.8363   0.01920   0.01179  -0.2612  0.4830  1.0000  -2.3045   0.0000   0.0000   0.0000   0.3788
   6.000   1.8628   0.01947   0.01201  -0.2612  0.4800  1.0000  -2.3402   0.0000   0.0000   0.0000   0.3762
   6.250   1.8849   0.01982   0.01240  -0.2603  0.4766  1.0000  -2.3715   0.0000   0.0000   0.0000   0.3736
   6.500   1.9064   0.02014   0.01277  -0.2593  0.4730  1.0000  -2.4024   0.0000   0.0000   0.0000   0.3711
   6.750   1.9314   0.02043   0.01303  -0.2590  0.4699  1.0000  -2.4376   0.0000   0.0000   0.0000   0.3686
   7.000   1.9543   0.02078   0.01340  -0.2584  0.4666  1.0000  -2.4721   0.0000   0.0000   0.0000   0.3662
   7.250   1.9730   0.02113   0.01383  -0.2569  0.4627  1.0000  -2.5025   0.0000   0.0000   0.0000   0.3637
   7.500   1.9967   0.02144   0.01412  -0.2564  0.4594  1.0000  -2.5381   0.0000   0.0000   0.0000   0.3614
   7.750   2.0196   0.02180   0.01450  -0.2558  0.4562  1.0000  -2.5729   0.0000   0.0000   0.0000   0.3591
   8.000   2.0354   0.02221   0.01501  -0.2538  0.4523  1.0000  -2.6005   0.0000   0.0000   0.0000   0.3566
   8.250   2.0575   0.02254   0.01534  -0.2530  0.4489  1.0000  -2.6348   0.0000   0.0000   0.0000   0.3543
   8.500   2.0810   0.02293   0.01573  -0.2526  0.4460  1.0000  -2.6701   0.0000   0.0000   0.0000   0.3522
   8.750   2.0930   0.02339   0.01633  -0.2499  0.4423  1.0000  -2.6938   0.0000   0.0000   0.0000   0.3497
   9.000   2.1124   0.02378   0.01675  -0.2487  0.4391  1.0000  -2.7253   0.0000   0.0000   0.0000   0.3475
   9.250   2.1401   0.02413   0.01705  -0.2490  0.4362  1.0000  -2.7651   0.0000   0.0000   0.0000   0.3456
   9.500   2.1445   0.02471   0.01781  -0.2450  0.4324  1.0000  -2.7812   0.0000   0.0000   0.0000   0.3429
   9.750   2.1606   0.02516   0.01831  -0.2433  0.4289  1.0000  -2.8095   0.0000   0.0000   0.0000   0.3407
  10.000   2.1880   0.02551   0.01862  -0.2436  0.4260  1.0000  -2.8718   0.0000   0.0000   0.0000   0.3389
  10.250   2.1918   0.02624   0.01953  -0.2397  0.4224  1.0000  -2.9136   0.0000   0.0000   0.0000   0.3364
  10.500   2.2055   0.02680   0.02016  -0.2376  0.4189  1.0000  -2.9704   0.0000   0.0000   0.0000   0.3342
  10.750   2.2289   0.02714   0.02047  -0.2372  0.4153  1.0000  -3.0424   0.0000   0.0000   0.0000   0.3323
  11.000   2.2245   0.02809   0.02161  -0.2321  0.4105  1.0000  -3.0732   0.0000   0.0000   0.0000   0.3296
  11.250   2.2392   0.02854   0.02204  -0.2302  0.4058  1.0000  -3.1338   0.0000   0.0000   0.0000   0.3275
  11.500   2.2358   0.02965   0.02331  -0.2256  0.4008  1.0000  -3.1753   0.0000   0.0000   0.0000   0.3250
  11.750   2.2462   0.03034   0.02403  -0.2233  0.3962  1.0000  -3.2425   0.0000   0.0000   0.0000   0.3229
  12.000   2.2485   0.03148   0.02530  -0.2199  0.3918  1.0000  -3.2985   0.0000   0.0000   0.0000   0.3207
  12.250   2.2556   0.03248   0.02639  -0.2173  0.3877  1.0000  -3.3646   0.0000   0.0000   0.0000   0.3187
  12.500   2.2667   0.03336   0.02731  -0.2154  0.3837  1.0000  -3.4391   0.0000   0.0000   0.0000   0.3167
  12.750   2.2635   0.03494   0.02906  -0.2117  0.3789  1.0000  -3.4856   0.0000   0.0000   0.0000   0.3146
  13.000   2.2770   0.03574   0.02984  -0.2103  0.3747  1.0000  -3.5701   0.0000   0.0000   0.0000   0.3128
  13.250   2.2684   0.03786   0.03217  -0.2064  0.3698  1.0000  -3.6096   0.0000   0.0000   0.0000   0.3108
  13.500   2.2766   0.03904   0.03338  -0.2045  0.3654  1.0000  -3.6863   0.0000   0.0000   0.0000   0.3090
  13.750   2.2706   0.04128   0.03579  -0.2014  0.3605  1.0000  -3.7315   0.0000   0.0000   0.0000   0.3072
  14.000   2.2752   0.04283   0.03738  -0.1994  0.3556  1.0000  -3.8008   0.0000   0.0000   0.0000   0.3055
  14.250   2.2669   0.04555   0.04027  -0.1966  0.3501  1.0000  -3.8490   0.0000   0.0000   0.0000   0.3039
  14.750   2.2591   0.05067   0.04560  -0.1924  0.3392  1.0000  -3.9835   0.0000   0.0000   0.0000   0.3009
  15.000   2.2589   0.05303   0.04803  -0.1908  0.3339  1.0000  -4.0618   0.0000   0.0000   0.0000   0.2995
  15.250   2.2495   0.05647   0.05161  -0.1889  0.3279  1.0000  -4.1133   0.0000   0.0000   0.0000   0.2983
  15.500   2.2426   0.05980   0.05505  -0.1874  0.3220  1.0000  -4.1719   0.0000   0.0000   0.0000   0.2971
  15.750   2.2407   0.06261   0.05789  -0.1861  0.3162  1.0000  -4.2488   0.0000   0.0000   0.0000   0.2959
  16.000   2.2256   0.06718   0.06264  -0.1847  0.3093  1.0000  -4.2870   0.0000   0.0000   0.0000   0.2951
  16.250   2.2159   0.07119   0.06676  -0.1837  0.3026  1.0000  -4.3428   0.0000   0.0000   0.0000   0.2943
  16.500   2.2088   0.07495   0.07057  -0.1828  0.2960  1.0000  -4.4071   0.0000   0.0000   0.0000   0.2934
  16.750   2.1964   0.07953   0.07525  -0.1821  0.2885  1.0000  -4.4531   0.0000   0.0000   0.0000   0.2927
  17.000   2.1819   0.08454   0.08037  -0.1816  0.2805  1.0000  -4.4932   0.0000   0.0000   0.0000   0.2923
  17.250   2.1678   0.08956   0.08549  -0.1813  0.2722  1.0000  -4.5654   0.0000   0.0000   0.0000   0.2919
  17.500   2.1535   0.09470   0.09071  -0.1812  0.2635  1.0000  -4.6351   0.0000   0.0000   0.0000   0.2916
  17.750   2.1392   0.09990   0.09598  -0.1813  0.2544  1.0000  -4.7046   0.0000   0.0000   0.0000   0.2914
  18.000   2.1247   0.10517   0.10130  -0.1816  0.2448  1.0000  -4.7752   0.0000   0.0000   0.0000   0.2914
  18.250   2.1097   0.11057   0.10674  -0.1821  0.2346  1.0000  -4.8402   0.0000   0.0000   0.0000   0.2914
  18.500   2.0949   0.11595   0.11213  -0.1828  0.2239  1.0000  -4.9039   0.0000   0.0000   0.0000   0.2916
  18.750   2.0793   0.12152   0.11773  -0.1838  0.2124  1.0000  -4.9595   0.0000   0.0000   0.0000   0.2919
  19.000   2.0638   0.12705   0.12325  -0.1850  0.2006  1.0000  -5.0132   0.0000   0.0000   0.0000   0.2924
  19.250   2.0490   0.13244   0.12862  -0.1864  0.1889  1.0000  -5.0686   0.0000   0.0000   0.0000   0.2929
  19.500   2.0347   0.13782   0.13399  -0.1880  0.1769  1.0000  -5.1233   0.0000   0.0000   0.0000   0.2935
  19.750   2.0214   0.14299   0.13910  -0.1896  0.1663  1.0000  -5.1824   0.0000   0.0000   0.0000   0.2941
  20.000   2.0102   0.14784   0.14392  -0.1913  0.1563  1.0000  -5.2522   0.0000   0.0000   0.0000   0.2947
  20.250   2.0006   0.15241   0.14848  -0.1931  0.1472  1.0000  -5.3308   0.0000   0.0000   0.0000   0.2953
  20.500   1.9926   0.15672   0.15277  -0.1949  0.1390  1.0000  -5.4185   0.0000   0.0000   0.0000   0.2957
  20.750   1.9860   0.16080   0.15685  -0.1966  0.1315  1.0000  -5.5145   0.0000   0.0000   0.0000   0.2962
  21.000   1.9804   0.16471   0.16076  -0.1984  0.1245  1.0000  -5.6167   0.0000   0.0000   0.0000   0.2965
  21.250   1.9756   0.16846   0.16450  -0.2003  0.1181  1.0000  -5.7247   0.0000   0.0000   0.0000   0.2969
  21.500   1.9715   0.17207   0.16811  -0.2021  0.1122  1.0000  -5.8368   0.0000   0.0000   0.0000   0.2972
  21.750   1.9677   0.17568   0.17171  -0.2040  0.1066  1.0000  -5.9503   0.0000   0.0000   0.0000   0.2975
  22.000   1.9647   0.17916   0.17523  -0.2060  0.1011  1.0000  -6.0697   0.0000   0.0000   0.0000   0.2978
  22.250   1.9622   0.18249   0.17860  -0.2079  0.0958  1.0000  -6.1923   0.0000   0.0000   0.0000   0.2981
  22.500   1.9597   0.18581   0.18196  -0.2099  0.0909  1.0000  -6.3155   0.0000   0.0000   0.0000   0.2984
  22.750   1.9575   0.18905   0.18520  -0.2119  0.0863  1.0000  -6.4404   0.0000   0.0000   0.0000   0.2987
  23.000   1.9551   0.19233   0.18846  -0.2140  0.0821  1.0000  -6.5656   0.0000   0.0000   0.0000   0.2991
  23.250   1.9529   0.19567   0.19188  -0.2162  0.0775  1.0000  -6.6891   0.0000   0.0000   0.0000   0.2994
  23.500   1.9511   0.19884   0.19509  -0.2184  0.0734  1.0000  -6.8166   0.0000   0.0000   0.0000   0.2998
  23.750   1.9492   0.20202   0.19830  -0.2207  0.0696  1.0000  -6.9435   0.0000   0.0000   0.0000   0.3002
  24.000   1.9472   0.20517   0.20145  -0.2230  0.0660  1.0000  -7.0710   0.0000   0.0000   0.0000   0.3006
  24.250   1.9453   0.20837   0.20470  -0.2254  0.0624  1.0000  -7.1977   0.0000   0.0000   0.0000   0.3010
  24.500   1.9434   0.21154   0.20793  -0.2278  0.0589  1.0000  -7.3272   0.0000   0.0000   0.0000   0.3014
  24.750   1.9418   0.21462   0.21105  -0.2302  0.0558  1.0000  -7.4638   0.0000   0.0000   0.0000   0.3019
  25.000   1.9401   0.21764   0.21408  -0.2327  0.0530  1.0000  -7.6020   0.0000   0.0000   0.0000   0.3023


