xflr5 v6.59

 Calculated polar for: TKV2008

 1 1 Reynolds number fixed          Mach number fixed         

 xtrf =   1.000 (top)        1.000 (bottom)
 Mach =   0.000     Re =     0.080 e 6     Ncrit =   9.000

  alpha     CL        CD       CDp       Cm    Top Xtr Bot Xtr   Cpmin    Chinge    XCp    
 ------- -------- --------- --------- -------- ------- ------- -------- --------- ---------
 -25.000  -0.4559   0.26900   0.26205  -0.0014  1.0000  0.0264  -1.2828   0.0000   0.0000   0.0000   0.2043
 -24.750  -0.4485   0.26694   0.26000  -0.0029  1.0000  0.0267  -1.2763   0.0000   0.0000   0.0000   0.2008
 -24.500  -0.4411   0.26487   0.25795  -0.0045  1.0000  0.0270  -1.2707   0.0000   0.0000   0.0000   0.1971
 -24.250  -0.4336   0.26281   0.25589  -0.0060  1.0000  0.0272  -1.2658   0.0000   0.0000   0.0000   0.1933
 -24.000  -0.4262   0.26075   0.25385  -0.0075  1.0000  0.0274  -1.2620   0.0000   0.0000   0.0000   0.1894
 -23.750  -0.4188   0.25870   0.25181  -0.0091  1.0000  0.0276  -1.2625   0.0000   0.0000   0.0000   0.1853
 -23.250  -0.4040   0.25462   0.24777  -0.0121  1.0000  0.0278  -1.2697   0.0000   0.0000   0.0000   0.1768
 -23.000  -0.3965   0.25230   0.24547  -0.0133  1.0000  0.0281  -1.2556   0.0000   0.0000   0.0000   0.1729
 -22.750  -0.3890   0.25018   0.24337  -0.0147  1.0000  0.0284  -1.2450   0.0000   0.0000   0.0000   0.1687
 -22.500  -0.3815   0.24808   0.24128  -0.0160  1.0000  0.0288  -1.2369   0.0000   0.0000   0.0000   0.1642
 -22.250  -0.3740   0.24597   0.23919  -0.0173  1.0000  0.0291  -1.2306   0.0000   0.0000   0.0000   0.1597
 -22.000  -0.3666   0.24387   0.23711  -0.0186  1.0000  0.0295  -1.2260   0.0000   0.0000   0.0000   0.1549
 -21.750  -0.3592   0.24178   0.23505  -0.0199  1.0000  0.0298  -1.2233   0.0000   0.0000   0.0000   0.1500
 -21.500  -0.3518   0.23970   0.23298  -0.0212  1.0000  0.0300  -1.2225   0.0000   0.0000   0.0000   0.1448
 -21.000  -0.3373   0.23559   0.22892  -0.0238  1.0000  0.0303  -1.2275   0.0000   0.0000   0.0000   0.1341
 -20.750  -0.3298   0.23324   0.22659  -0.0248  1.0000  0.0305  -1.2139   0.0000   0.0000   0.0000   0.1291
 -20.500  -0.3224   0.23106   0.22444  -0.0259  1.0000  0.0309  -1.2051   0.0000   0.0000   0.0000   0.1237
 -20.250  -0.3151   0.22892   0.22233  -0.0269  1.0000  0.0312  -1.1991   0.0000   0.0000   0.0000   0.1181
 -20.000  -0.3078   0.22679   0.22022  -0.0280  1.0000  0.0316  -1.1950   0.0000   0.0000   0.0000   0.1122
 -19.750  -0.3007   0.22468   0.21814  -0.0291  1.0000  0.0320  -1.1927   0.0000   0.0000   0.0000   0.1062
 -19.500  -0.2936   0.22260   0.21609  -0.0301  1.0000  0.0323  -1.1926   0.0000   0.0000   0.0000   0.0999
 -19.250  -0.2867   0.22055   0.21407  -0.0311  1.0000  0.0325  -1.1957   0.0000   0.0000   0.0000   0.0934
 -18.750  -0.2729   0.21626   0.20985  -0.0330  1.0000  0.0330  -1.1887   0.0000   0.0000   0.0000   0.0802
 -18.500  -0.2659   0.21402   0.20764  -0.0337  1.0000  0.0334  -1.1730   0.0000   0.0000   0.0000   0.0737
 -18.250  -0.2590   0.21189   0.20554  -0.0345  1.0000  0.0339  -1.1625   0.0000   0.0000   0.0000   0.0669
 -18.000  -0.2523   0.20979   0.20348  -0.0353  1.0000  0.0344  -1.1570   0.0000   0.0000   0.0000   0.0598
 -17.750  -0.2459   0.20773   0.20146  -0.0360  1.0000  0.0348  -1.1603   0.0000   0.0000   0.0000   0.0525
 -17.500  -0.2396   0.20573   0.19949  -0.0368  1.0000  0.0351  -1.1676   0.0000   0.0000   0.0000   0.0450
 -17.000  -0.2277   0.20171   0.19557  -0.0381  1.0000  0.0355  -1.1791   0.0000   0.0000   0.0000   0.0301
 -16.750  -0.2213   0.19942   0.19332  -0.0385  1.0000  0.0359  -1.1646   0.0000   0.0000   0.0000   0.0230
 -16.500  -0.2153   0.19732   0.19127  -0.0389  1.0000  0.0364  -1.1568   0.0000   0.0000   0.0000   0.0158
 -16.250  -0.2096   0.19529   0.18929  -0.0393  1.0000  0.0369  -1.1528   0.0000   0.0000   0.0000   0.0085
 -16.000  -0.2043   0.19332   0.18736  -0.0396  1.0000  0.0374  -1.1523   0.0000   0.0000   0.0000   0.0014
 -15.750  -0.1994   0.19143   0.18553  -0.0400  1.0000  0.0378  -1.1559   0.0000   0.0000   0.0000  -0.0054
 -15.500  -0.1951   0.18968   0.18383  -0.0403  1.0000  0.0381  -1.1647   0.0000   0.0000   0.0000  -0.0117
 -15.250  -0.1913   0.18801   0.18222  -0.0405  1.0000  0.0383  -1.1747   0.0000   0.0000   0.0000  -0.0171
 -15.000  -0.1865   0.18573   0.18001  -0.0403  1.0000  0.0387  -1.1540   0.0000   0.0000   0.0000  -0.0217
 -14.750  -0.1827   0.18384   0.17819  -0.0401  1.0000  0.0392  -1.1426   0.0000   0.0000   0.0000  -0.0251
 -14.500  -0.1797   0.18212   0.17653  -0.0398  1.0000  0.0397  -1.1364   0.0000   0.0000   0.0000  -0.0268
 -14.250  -0.1779   0.18056   0.17505  -0.0393  1.0000  0.0403  -1.1349   0.0000   0.0000   0.0000  -0.0261
 -14.000  -0.1774   0.17925   0.17383  -0.0387  1.0000  0.0408  -1.1395   0.0000   0.0000   0.0000  -0.0220
 -13.750  -0.1792   0.17831   0.17298  -0.0378  1.0000  0.0411  -1.1586   0.0000   0.0000   0.0000  -0.0130
 -13.500  -0.1832   0.17756   0.17235  -0.0363  1.0000  0.0413  -1.1723   0.0000   0.0000   0.0000   0.0020
 -13.250  -0.1892   0.17685   0.17176  -0.0339  1.0000  0.0417  -1.1647   0.0000   0.0000   0.0000   0.0237
 -13.000  -0.2002   0.17708   0.17211  -0.0309  1.0000  0.0421  -1.1684   0.0000   0.0000   0.0000   0.0522
 -12.750  -0.2091   0.17715   0.17230  -0.0289  0.9995  0.0424  -1.1737   0.0000   0.0000   0.0000   0.0714
 -12.500  -0.1815   0.17311   0.16824  -0.0357  0.9939  0.0436  -1.1621   0.0000   0.0000   0.0000   0.0059
 -12.250  -0.1559   0.16954   0.16464  -0.0425  0.9878  0.0443  -1.1714   0.0000   0.0000   0.0000  -0.0785
 -12.000  -0.1303   0.16534   0.16043  -0.0484  0.9816  0.0449  -1.1520   0.0000   0.0000   0.0000  -0.1887
 -11.750  -0.1051   0.16131   0.15638  -0.0540  0.9750  0.0461  -1.1263   0.0000   0.0000   0.0000  -0.3471
 -11.500  -0.0816   0.15760   0.15265  -0.0596  0.9680  0.0472  -1.1196   0.0000   0.0000   0.0000  -0.5883
 -10.500   0.0049   0.14301   0.13800  -0.0791  0.9383  0.0512  -1.0784   0.0000   0.0000   0.0000  18.0752
 -10.250   0.0244   0.13949   0.13448  -0.0833  0.9306  0.0519  -1.0712   0.0000   0.0000   0.0000   4.0214
 -10.000   0.0455   0.13566   0.13064  -0.0869  0.9232  0.0533  -1.0403   0.0000   0.0000   0.0000   2.3522
  -9.750   0.0648   0.13241   0.12738  -0.0912  0.9160  0.0549  -1.0462   0.0000   0.0000   0.0000   1.7891
  -9.500   0.0874   0.12867   0.12362  -0.0961  0.9108  0.0559  -1.0489   0.0000   0.0000   0.0000   1.4468
  -9.250   0.1066   0.12517   0.12011  -0.0990  0.9029  0.0577  -1.0246   0.0000   0.0000   0.0000   1.2586
  -9.000   0.1233   0.12242   0.11734  -0.1027  0.8952  0.0593  -1.0383   0.0000   0.0000   0.0000   1.1515
  -8.750   0.1491   0.11817   0.11307  -0.1076  0.8915  0.0605  -1.0229   0.0000   0.0000   0.0000   1.0275
  -8.500   0.1667   0.11503   0.10992  -0.1102  0.8836  0.0624  -1.0046   0.0000   0.0000   0.0000   0.9602
  -8.250   0.1852   0.11233   0.10719  -0.1147  0.8776  0.0640  -1.0241   0.0000   0.0000   0.0000   0.9129
  -8.000   0.2103   0.10820   0.10303  -0.1186  0.8724  0.0655  -0.9928   0.0000   0.0000   0.0000   0.8518
  -7.750   0.2326   0.10498   0.09978  -0.1226  0.8663  0.0679  -0.9776   0.0000   0.0000   0.0000   0.8109
  -7.500   0.2554   0.10204   0.09681  -0.1282  0.8607  0.0695  -0.9932   0.0000   0.0000   0.0000   0.7825
  -7.250   0.2803   0.09831   0.09303  -0.1312  0.8540  0.0720  -0.9450   0.0000   0.0000   0.0000   0.7458
  -7.000   0.3030   0.09591   0.09059  -0.1375  0.8484  0.0745  -0.9691   0.0000   0.0000   0.0000   0.7289
  -6.750   0.3221   0.09257   0.08723  -0.1386  0.8401  0.0766  -0.9529   0.0000   0.0000   0.0000   0.7034
  -6.500   0.3368   0.09070   0.08533  -0.1414  0.8324  0.0798  -0.9621   0.0000   0.0000   0.0000   0.6914
  -6.250   0.3593   0.08756   0.08215  -0.1446  0.8260  0.0822  -0.9781   0.0000   0.0000   0.0000   0.6722
  -6.000   0.3632   0.08647   0.08107  -0.1438  0.8164  0.0850  -0.9816   0.0000   0.0000   0.0000   0.6648
  -5.750   0.3537   0.08689   0.08153  -0.1420  0.8063  0.0865  -0.9744   0.0000   0.0000   0.0000   0.6696
  -5.500   0.3845   0.08289   0.07746  -0.1455  0.8017  0.0899  -0.9969   0.0000   0.0000   0.0000   0.6450
  -5.250   0.3753   0.08297   0.07759  -0.1422  0.7917  0.0918  -0.9912   0.0000   0.0000   0.0000   0.6448
  -5.000   0.3628   0.08374   0.07841  -0.1399  0.7820  0.0933  -0.9809   0.0000   0.0000   0.0000   0.6512
  -4.750   0.3892   0.08023   0.07485  -0.1424  0.7775  0.0965  -1.0011   0.0000   0.0000   0.0000   0.6299
  -4.500   0.3716   0.08092   0.07562  -0.1370  0.7677  0.0977  -0.9904   0.0000   0.0000   0.0000   0.6326
  -4.250   0.3569   0.08154   0.07631  -0.1331  0.7588  0.0995  -0.9802   0.0000   0.0000   0.0000   0.6365
  -4.000   0.3714   0.07974   0.07450  -0.1361  0.7532  0.1023  -0.9883   0.0000   0.0000   0.0000   0.6289
  -3.500   0.2788   0.08606   0.08111  -0.1157  0.7298  0.1006  -1.0119   0.0000   0.0000   0.0000   0.6791
  -3.250   0.2274   0.08935   0.08455  -0.1030  0.7180  0.0981  -1.0178   0.0000   0.0000   0.0000   0.7194
  -3.000   0.2444   0.08797   0.08316  -0.1088  0.7127  0.1018  -1.0486   0.0000   0.0000   0.0000   0.7096
   3.500   0.9262   0.09446   0.08629  -0.2154  0.5773  0.1466  -1.1561   0.0000   0.0000   0.0000   0.4771
   3.750   0.9216   0.09902   0.09096  -0.2153  0.5770  0.1562  -1.1367   0.0000   0.0000   0.0000   0.4779
   4.000   0.9277   0.10294   0.09497  -0.2158  0.5788  0.1822  -1.1287   0.0000   0.0000   0.0000   0.4766
   4.250   0.9527   0.10586   0.09856  -0.2184  0.5802  0.3997  -1.1395   0.0000   0.0000   0.0000   0.4727
   5.250   0.9276   0.12431   0.11809  -0.2187  0.6054  1.0000  -1.0479   0.0000   0.0000   0.0000   0.4783
   5.500   0.9201   0.12690   0.12062  -0.2176  0.5973  1.0000  -1.0284   0.0000   0.0000   0.0000   0.4787
   5.750   0.9520   0.12927   0.12266  -0.2184  0.5936  1.0000  -1.0568   0.0000   0.0000   0.0000   0.4710
   6.000   0.9460   0.13181   0.12517  -0.2176  0.5857  1.0000  -1.0394   0.0000   0.0000   0.0000   0.4711
   6.250   0.9759   0.13418   0.12731  -0.2182  0.5819  1.0000  -1.0684   0.0000   0.0000   0.0000   0.4642
   6.500   0.9706   0.13672   0.12984  -0.2176  0.5744  1.0000  -1.0525   0.0000   0.0000   0.0000   0.4644
   6.750   0.9967   0.13909   0.13204  -0.2181  0.5705  1.0000  -1.0766   0.0000   0.0000   0.0000   0.4584
   7.000   0.9946   0.14168   0.13461  -0.2178  0.5639  1.0000  -1.0634   0.0000   0.0000   0.0000   0.4581
   7.250   1.0182   0.14393   0.13674  -0.2181  0.5592  1.0000  -1.0860   0.0000   0.0000   0.0000   0.4528
   7.500   1.0194   0.14654   0.13932  -0.2181  0.5533  1.0000  -1.0792   0.0000   0.0000   0.0000   0.4521
   7.750   1.0397   0.14873   0.14143  -0.2183  0.5480  1.0000  -1.0984   0.0000   0.0000   0.0000   0.4476
   8.000   1.0504   0.15155   0.14420  -0.2186  0.5444  1.0000  -1.1031   0.0000   0.0000   0.0000   0.4452
   8.250   1.0592   0.15356   0.14618  -0.2187  0.5374  1.0000  -1.1078   0.0000   0.0000   0.0000   0.4430
   8.500   1.0896   0.15648   0.14902  -0.2192  0.5348  1.0000  -1.1440   0.0000   0.0000   0.0000   0.4372
   8.750   1.0805   0.15831   0.15088  -0.2192  0.5267  1.0000  -1.1259   0.0000   0.0000   0.0000   0.4384
   9.000   1.1085   0.16108   0.15358  -0.2196  0.5237  1.0000  -1.1594   0.0000   0.0000   0.0000   0.4331
   9.250   1.1018   0.16305   0.15558  -0.2199  0.5163  1.0000  -1.1425   0.0000   0.0000   0.0000   0.4341
   9.500   1.1272   0.16565   0.15814  -0.2202  0.5128  1.0000  -1.1728   0.0000   0.0000   0.0000   0.4293
   9.750   1.1235   0.16777   0.16028  -0.2207  0.5061  1.0000  -1.1637   0.0000   0.0000   0.0000   0.4299
  10.000   1.1469   0.17022   0.16270  -0.2209  0.5020  1.0000  -1.1952   0.0000   0.0000   0.0000   0.4255
  10.250   1.1458   0.17244   0.16495  -0.2216  0.4958  1.0000  -1.1883   0.0000   0.0000   0.0000   0.4258
  10.500   1.1670   0.17479   0.16729  -0.2218  0.4913  1.0000  -1.2166   0.0000   0.0000   0.0000   0.4219
  10.750   1.1682   0.17709   0.16962  -0.2226  0.4856  1.0000  -1.2163   0.0000   0.0000   0.0000   0.4218
  11.000   1.1881   0.17936   0.17188  -0.2228  0.4805  1.0000  -1.2471   0.0000   0.0000   0.0000   0.4182
  11.250   1.1902   0.18165   0.17421  -0.2237  0.4747  1.0000  -1.2479   0.0000   0.0000   0.0000   0.4181
  11.500   1.2106   0.18393   0.17651  -0.2239  0.4695  1.0000  -1.2825   0.0000   0.0000   0.0000   0.4145
  11.750   1.2117   0.18616   0.17877  -0.2249  0.4634  1.0000  -1.2824   0.0000   0.0000   0.0000   0.4146
  12.000   1.2330   0.18855   0.18118  -0.2251  0.4586  1.0000  -1.3182   0.0000   0.0000   0.0000   0.4109
  12.250   1.2330   0.19067   0.18334  -0.2262  0.4520  1.0000  -1.3146   0.0000   0.0000   0.0000   0.4114
  12.500   1.2575   0.19327   0.18598  -0.2262  0.4475  1.0000  -1.3578   0.0000   0.0000   0.0000   0.4071
  12.750   1.2556   0.19512   0.18787  -0.2275  0.4399  1.0000  -1.3526   0.0000   0.0000   0.0000   0.4079
  14.000   1.3074   0.20636   0.19936  -0.2315  0.4082  1.0000  -1.4503   0.0000   0.0000   0.0000   0.4007
  14.250   1.3175   0.20892   0.20199  -0.2324  0.4029  1.0000  -1.4717   0.0000   0.0000   0.0000   0.3995
  14.500   1.3359   0.21105   0.20418  -0.2325  0.3958  1.0000  -1.5134   0.0000   0.0000   0.0000   0.3964
  14.750   1.3363   0.21314   0.20633  -0.2343  0.3880  1.0000  -1.5113   0.0000   0.0000   0.0000   0.3971
  15.000   1.3455   0.21563   0.20889  -0.2353  0.3821  1.0000  -1.5285   0.0000   0.0000   0.0000   0.3961
  15.250   1.3680   0.21788   0.21121  -0.2350  0.3751  1.0000  -1.5804   0.0000   0.0000   0.0000   0.3923
  15.500   1.3667   0.21986   0.21325  -0.2371  0.3671  1.0000  -1.5753   0.0000   0.0000   0.0000   0.3934
  15.750   1.3720   0.22233   0.21579  -0.2386  0.3603  1.0000  -1.5862   0.0000   0.0000   0.0000   0.3932
  16.000   1.3917   0.22475   0.21829  -0.2386  0.3543  1.0000  -1.6391   0.0000   0.0000   0.0000   0.3899
  17.500   1.4704   0.22821   0.22218  -0.2384  0.2760  1.0000  -1.9360   0.0000   0.0000   0.0000   0.3757
  17.750   1.4827   0.22934   0.22339  -0.2387  0.2671  1.0000  -1.9857   0.0000   0.0000   0.0000   0.3738
  18.000   1.4647   0.23896   0.23310  -0.2462  0.2811  1.0000  -1.8794   0.0000   0.0000   0.0000   0.3808
  18.250   1.4728   0.24235   0.23658  -0.2479  0.2797  1.0000  -1.8981   0.0000   0.0000   0.0000   0.3805
  18.500   1.4737   0.24656   0.24087  -0.2511  0.2799  1.0000  -1.8866   0.0000   0.0000   0.0000   0.3820
  18.750   1.4774   0.24992   0.24430  -0.2535  0.2769  1.0000  -1.8913   0.0000   0.0000   0.0000   0.3826
  19.000   1.4895   0.25169   0.24616  -0.2541  0.2684  1.0000  -1.9370   0.0000   0.0000   0.0000   0.3808
  19.250   1.5442   0.23883   0.23342  -0.2432  0.2239  1.0000  -2.2556   0.0000   0.0000   0.0000   0.3655
  19.500   1.5392   0.24328   0.23793  -0.2471  0.2181  1.0000  -2.2262   0.0000   0.0000   0.0000   0.3680
  19.750   1.5426   0.24624   0.24097  -0.2493  0.2121  1.0000  -2.2381   0.0000   0.0000   0.0000   0.3685
  20.000   1.5552   0.24737   0.24219  -0.2496  0.2055  1.0000  -2.3046   0.0000   0.0000   0.0000   0.3664
  20.250   1.5790   0.24606   0.24102  -0.2474  0.1988  1.0000  -2.4444   0.0000   0.0000   0.0000   0.3615
  20.500   1.5596   0.25399   0.24896  -0.2549  0.1949  1.0000  -2.3225   0.0000   0.0000   0.0000   0.3680
  20.750   1.5713   0.25526   0.25033  -0.2553  0.1887  1.0000  -2.3980   0.0000   0.0000   0.0000   0.3662
  21.000   1.5699   0.25959   0.25472  -0.2590  0.1849  1.0000  -2.3803   0.0000   0.0000   0.0000   0.3681
  21.250   1.5558   0.27035   0.26552  -0.2674  0.2005  1.0000  -2.2264   0.0000   0.0000   0.0000   0.3751
  21.500   1.5652   0.27343   0.26868  -0.2688  0.1983  1.0000  -2.2671   0.0000   0.0000   0.0000   0.3741
  21.750   1.5717   0.27508   0.27041  -0.2703  0.1897  1.0000  -2.3060   0.0000   0.0000   0.0000   0.3736
  22.000   1.5828   0.27450   0.26992  -0.2702  0.1751  1.0000  -2.3943   0.0000   0.0000   0.0000   0.3712
  22.250   1.5906   0.27796   0.27346  -0.2720  0.1736  1.0000  -2.4244   0.0000   0.0000   0.0000   0.3708


