xflr5 v6.59

 Calculated polar for: TKV2008

 1 1 Reynolds number fixed          Mach number fixed         

 xtrf =   1.000 (top)        1.000 (bottom)
 Mach =   0.000     Re =     0.350 e 6     Ncrit =   9.000

  alpha     CL        CD       CDp       Cm    Top Xtr Bot Xtr   Cpmin    Chinge    XCp    
 ------- -------- --------- --------- -------- ------- ------- -------- --------- ---------
 -25.000  -0.4684   0.26895   0.26566   0.0037  1.0000  0.0094  -1.3292   0.0000   0.0000   0.0000   0.2168
 -24.750  -0.4611   0.26683   0.26354   0.0022  1.0000  0.0096  -1.3180   0.0000   0.0000   0.0000   0.2136
 -24.500  -0.4537   0.26469   0.26141   0.0007  1.0000  0.0097  -1.3097   0.0000   0.0000   0.0000   0.2104
 -24.250  -0.4464   0.26253   0.25926  -0.0008  1.0000  0.0098  -1.3051   0.0000   0.0000   0.0000   0.2070
 -24.000  -0.4390   0.26035   0.25708  -0.0023  1.0000  0.0099  -1.3005   0.0000   0.0000   0.0000   0.2036
 -23.750  -0.4316   0.25816   0.25490  -0.0037  1.0000  0.0101  -1.2964   0.0000   0.0000   0.0000   0.2001
 -23.500  -0.4242   0.25597   0.25272  -0.0051  1.0000  0.0102  -1.2931   0.0000   0.0000   0.0000   0.1965
 -23.250  -0.4168   0.25375   0.25050  -0.0065  1.0000  0.0102  -1.2953   0.0000   0.0000   0.0000   0.1928
 -21.750  -0.3725   0.24026   0.23707  -0.0146  1.0000  0.0104  -1.3320   0.0000   0.0000   0.0000   0.1684
 -21.500  -0.3653   0.23810   0.23492  -0.0157  1.0000  0.0105  -1.3085   0.0000   0.0000   0.0000   0.1643
 -21.250  -0.3581   0.23597   0.23280  -0.0169  1.0000  0.0106  -1.2900   0.0000   0.0000   0.0000   0.1600
 -21.000  -0.3508   0.23381   0.23065  -0.0180  1.0000  0.0107  -1.2740   0.0000   0.0000   0.0000   0.1556
 -20.750  -0.3435   0.23168   0.22853  -0.0192  1.0000  0.0108  -1.2600   0.0000   0.0000   0.0000   0.1510
 -20.500  -0.3362   0.22950   0.22636  -0.0203  1.0000  0.0109  -1.2476   0.0000   0.0000   0.0000   0.1462
 -20.250  -0.3290   0.22731   0.22418  -0.0214  1.0000  0.0111  -1.2448   0.0000   0.0000   0.0000   0.1414
 -20.000  -0.3218   0.22510   0.22199  -0.0224  1.0000  0.0112  -1.2432   0.0000   0.0000   0.0000   0.1364
 -19.750  -0.3146   0.22291   0.21981  -0.0234  1.0000  0.0113  -1.2421   0.0000   0.0000   0.0000   0.1313
 -19.500  -0.3076   0.22067   0.21759  -0.0244  1.0000  0.0114  -1.2415   0.0000   0.0000   0.0000   0.1261
 -19.250  -0.3005   0.21843   0.21536  -0.0253  1.0000  0.0116  -1.2417   0.0000   0.0000   0.0000   0.1208
 -19.000  -0.2936   0.21618   0.21313  -0.0262  1.0000  0.0117  -1.2430   0.0000   0.0000   0.0000   0.1154
 -18.750  -0.2867   0.21394   0.21090  -0.0271  1.0000  0.0118  -1.2462   0.0000   0.0000   0.0000   0.1098
 -18.500  -0.2799   0.21168   0.20866  -0.0279  1.0000  0.0119  -1.2518   0.0000   0.0000   0.0000   0.1041
 -18.250  -0.2732   0.20949   0.20648  -0.0288  1.0000  0.0119  -1.2599   0.0000   0.0000   0.0000   0.0982
 -14.000  -0.0879   0.16331   0.16051  -0.0622  0.9877  0.0138  -1.2008   0.0000   0.0000   0.0000  -0.5777
 -13.750  -0.0677   0.15968   0.15688  -0.0666  0.9859  0.0140  -1.1617   0.0000   0.0000   0.0000  -0.8909
 -13.500  -0.0485   0.15609   0.15329  -0.0707  0.9835  0.0142  -1.1392   0.0000   0.0000   0.0000  -1.4255
 -13.250  -0.0294   0.15247   0.14967  -0.0748  0.9808  0.0145  -1.1284   0.0000   0.0000   0.0000  -2.6551
 -13.000  -0.0085   0.14870   0.14589  -0.0794  0.9792  0.0148  -1.1231   0.0000   0.0000   0.0000  -10.3009
 -12.750   0.0087   0.14509   0.14228  -0.0829  0.9752  0.0151  -1.1252   0.0000   0.0000   0.0000  10.9606
 -12.500   0.0293   0.14124   0.13842  -0.0874  0.9729  0.0153  -1.1367   0.0000   0.0000   0.0000   3.5962
 -12.250   0.0451   0.13767   0.13485  -0.0907  0.9677  0.0154  -1.1651   0.0000   0.0000   0.0000   2.4910
 -11.750   0.0743   0.13092   0.12812  -0.0958  0.9538  0.0156  -1.1561   0.0000   0.0000   0.0000   1.6761
 -11.250   0.0920   0.12555   0.12277  -0.0969  0.9197  0.0159  -1.1107   0.0000   0.0000   0.0000   1.4088
 -11.000   0.1127   0.12179   0.11898  -0.1010  0.9065  0.0162  -1.0907   0.0000   0.0000   0.0000   1.2321
 -10.750   0.1420   0.11729   0.11442  -0.1077  0.8965  0.0167  -1.0728   0.0000   0.0000   0.0000   1.0771
  -8.750   0.3871   0.08626   0.08207  -0.1634  0.7490  0.0196  -1.0157   0.0000   0.0000   0.0000   0.6982
  -8.500   0.3963   0.08447   0.08020  -0.1637  0.7368  0.0199  -1.0064   0.0000   0.0000   0.0000   0.6878
  -8.250   0.4052   0.08266   0.07832  -0.1640  0.7261  0.0203  -1.0142   0.0000   0.0000   0.0000   0.6782
  -8.000   0.4136   0.08084   0.07644  -0.1643  0.7163  0.0207  -1.0213   0.0000   0.0000   0.0000   0.6695
  -7.750   0.4210   0.07899   0.07455  -0.1648  0.7074  0.0211  -1.0308   0.0000   0.0000   0.0000   0.6626
  -7.500   0.4278   0.07712   0.07264  -0.1653  0.6996  0.0213  -1.0727   0.0000   0.0000   0.0000   0.6566
  -7.250   0.4381   0.07532   0.07080  -0.1651  0.6919  0.0215  -1.0435   0.0000   0.0000   0.0000   0.6459
  -7.000   0.4470   0.07363   0.06909  -0.1651  0.6849  0.0219  -1.0521   0.0000   0.0000   0.0000   0.6373
  -6.750   0.4556   0.07192   0.06734  -0.1653  0.6786  0.0224  -1.0600   0.0000   0.0000   0.0000   0.6296
  -6.500   0.4625   0.07018   0.06560  -0.1653  0.6722  0.0230  -1.0658   0.0000   0.0000   0.0000   0.6233
  -6.000   0.4748   0.06674   0.06214  -0.1649  0.6608  0.0236  -1.0783   0.0000   0.0000   0.0000   0.6115
  -5.750   0.4818   0.06525   0.06064  -0.1643  0.6554  0.0240  -1.0867   0.0000   0.0000   0.0000   0.6041
  -5.500   0.4867   0.06384   0.05922  -0.1635  0.6504  0.0247  -1.0927   0.0000   0.0000   0.0000   0.5983
  -5.250   0.4905   0.06200   0.05741  -0.1656  0.6453  0.0255  -1.1512   0.0000   0.0000   0.0000   0.5991
  -4.750   0.5139   0.05870   0.05408  -0.1651  0.6355  0.0265  -1.1157   0.0000   0.0000   0.0000   0.5810
  -4.500   0.5271   0.05673   0.05209  -0.1670  0.6309  0.0274  -1.1245   0.0000   0.0000   0.0000   0.5758
  -4.250   0.5434   0.05438   0.04972  -0.1704  0.6266  0.0280  -1.1336   0.0000   0.0000   0.0000   0.5717
  -4.000   0.5578   0.05272   0.04807  -0.1710  0.6219  0.0286  -1.1464   0.0000   0.0000   0.0000   0.5639
  -3.750   0.5895   0.04921   0.04450  -0.1804  0.6180  0.0302  -1.1788   0.0000   0.0000   0.0000   0.5624
  -3.500   0.6033   0.04789   0.04318  -0.1793  0.6137  0.0307  -1.1758   0.0000   0.0000   0.0000   0.5529
  -3.250   0.6300   0.04548   0.04075  -0.1839  0.6092  0.0323  -1.1933   0.0000   0.0000   0.0000   0.5468
  -3.000   0.6632   0.04277   0.03794  -0.1900  0.6054  0.0335  -1.2146   0.0000   0.0000   0.0000   0.5406
  -2.000   0.8758   0.02820   0.02280  -0.2317  0.5880  0.0484  -1.3426   0.0000   0.0000   0.0000   0.5159
  -1.250   1.0758   0.01688   0.00931  -0.2614  0.5754  0.0354  -1.4730   0.0000   0.0000   0.0000   0.4928
  -1.000   1.1097   0.01618   0.00837  -0.2626  0.5715  0.0353  -1.5021   0.0000   0.0000   0.0000   0.4860
  -0.750   1.1409   0.01583   0.00796  -0.2634  0.5678  0.0374  -1.5301   0.0000   0.0000   0.0000   0.4798
  -0.500   1.1709   0.01545   0.00750  -0.2639  0.5636  0.0389  -1.5570   0.0000   0.0000   0.0000   0.4737
  -0.250   1.2013   0.01522   0.00719  -0.2644  0.5599  0.0415  -1.5859   0.0000   0.0000   0.0000   0.4680
   0.000   1.2319   0.01507   0.00701  -0.2650  0.5563  0.0447  -1.6154   0.0000   0.0000   0.0000   0.4625
   0.250   1.2606   0.01491   0.00691  -0.2652  0.5519  0.0493  -1.6436   0.0000   0.0000   0.0000   0.4574
   0.500   1.2905   0.01482   0.00681  -0.2657  0.5481  0.0566  -1.6729   0.0000   0.0000   0.0000   0.4524
   0.750   1.3213   0.01474   0.00675  -0.2664  0.5446  0.0801  -1.7027   0.0000   0.0000   0.0000   0.4476
   1.000   1.3506   0.01459   0.00697  -0.2670  0.5405  0.2364  -1.7316   0.0000   0.0000   0.0000   0.4432
   1.250   1.3782   0.01469   0.00707  -0.2670  0.5370  0.2743  -1.7598   0.0000   0.0000   0.0000   0.4388
   1.500   1.4068   0.01482   0.00720  -0.2673  0.5338  0.3132  -1.7896   0.0000   0.0000   0.0000   0.4346
   1.750   1.4332   0.01484   0.00740  -0.2672  0.5297  0.3752  -1.8175   0.0000   0.0000   0.0000   0.4306
   2.000   1.4619   0.01465   0.00774  -0.2676  0.5260  0.6424  -1.8496   0.0000   0.0000   0.0000   0.4268
   2.250   1.4822   0.01440   0.00781  -0.2658  0.5230  1.0000  -1.8760   0.0000   0.0000   0.0000   0.4226
   2.500   1.5070   0.01458   0.00796  -0.2653  0.5189  1.0000  -1.9054   0.0000   0.0000   0.0000   0.4188
   2.750   1.5334   0.01478   0.00808  -0.2651  0.5153  1.0000  -1.9363   0.0000   0.0000   0.0000   0.4151
   3.000   1.5615   0.01503   0.00820  -0.2652  0.5123  1.0000  -1.9688   0.0000   0.0000   0.0000   0.4117
   3.250   1.5859   0.01524   0.00841  -0.2647  0.5085  1.0000  -1.9980   0.0000   0.0000   0.0000   0.4082
   3.500   1.6113   0.01544   0.00857  -0.2643  0.5048  1.0000  -2.0283   0.0000   0.0000   0.0000   0.4049
   3.750   1.6383   0.01568   0.00872  -0.2642  0.5016  1.0000  -2.0601   0.0000   0.0000   0.0000   0.4017
   4.000   1.6624   0.01592   0.00895  -0.2636  0.4979  1.0000  -2.0893   0.0000   0.0000   0.0000   0.3985
   4.250   1.6867   0.01613   0.00916  -0.2631  0.4941  1.0000  -2.1188   0.0000   0.0000   0.0000   0.3954
   4.500   1.7127   0.01637   0.00933  -0.2629  0.4909  1.0000  -2.1501   0.0000   0.0000   0.0000   0.3924
   4.750   1.7366   0.01663   0.00959  -0.2623  0.4873  1.0000  -2.1791   0.0000   0.0000   0.0000   0.3895
   5.000   1.7599   0.01687   0.00984  -0.2615  0.4836  1.0000  -2.2079   0.0000   0.0000   0.0000   0.3866
   5.250   1.7851   0.01712   0.01004  -0.2612  0.4805  1.0000  -2.2412   0.0000   0.0000   0.0000   0.3838
   5.500   1.8091   0.01741   0.01033  -0.2607  0.4772  1.0000  -2.2744   0.0000   0.0000   0.0000   0.3811
   5.750   1.8310   0.01767   0.01062  -0.2597  0.4735  1.0000  -2.3058   0.0000   0.0000   0.0000   0.3783
   6.000   1.8552   0.01794   0.01087  -0.2592  0.4703  1.0000  -2.3394   0.0000   0.0000   0.0000   0.3757
   6.250   1.8804   0.01825   0.01115  -0.2590  0.4674  1.0000  -2.3740   0.0000   0.0000   0.0000   0.3732
   6.500   1.9002   0.01855   0.01152  -0.2576  0.4637  1.0000  -2.4035   0.0000   0.0000   0.0000   0.3706
   6.750   1.9225   0.01883   0.01181  -0.2568  0.4603  1.0000  -2.4359   0.0000   0.0000   0.0000   0.3680
   7.000   1.9483   0.01916   0.01207  -0.2567  0.4573  1.0000  -2.4735   0.0000   0.0000   0.0000   0.3657
   7.250   1.9641   0.01948   0.01250  -0.2546  0.4535  1.0000  -2.5013   0.0000   0.0000   0.0000   0.3631
   7.500   1.9837   0.01979   0.01283  -0.2533  0.4499  1.0000  -2.5331   0.0000   0.0000   0.0000   0.3606
   7.750   2.0089   0.02012   0.01311  -0.2531  0.4469  1.0000  -2.5703   0.0000   0.0000   0.0000   0.3584
   8.000   2.0217   0.02049   0.01361  -0.2505  0.4432  1.0000  -2.5953   0.0000   0.0000   0.0000   0.3558
   8.250   2.0399   0.02085   0.01400  -0.2490  0.4398  1.0000  -2.6257   0.0000   0.0000   0.0000   0.3534
   8.500   2.0632   0.02121   0.01434  -0.2485  0.4370  1.0000  -2.6611   0.0000   0.0000   0.0000   0.3512
   8.750   2.0784   0.02165   0.01487  -0.2464  0.4336  1.0000  -2.6882   0.0000   0.0000   0.0000   0.3489
   9.000   2.0942   0.02208   0.01537  -0.2445  0.4301  1.0000  -2.7160   0.0000   0.0000   0.0000   0.3465
   9.250   2.1147   0.02247   0.01576  -0.2436  0.4270  1.0000  -2.7489   0.0000   0.0000   0.0000   0.3444
   9.500   2.1299   0.02298   0.01634  -0.2416  0.4236  1.0000  -2.7760   0.0000   0.0000   0.0000   0.3421
   9.750   2.1432   0.02350   0.01695  -0.2394  0.4200  1.0000  -2.8013   0.0000   0.0000   0.0000   0.3398
  10.000   2.1625   0.02395   0.01741  -0.2383  0.4170  1.0000  -2.8437   0.0000   0.0000   0.0000   0.3377
  10.250   2.1787   0.02451   0.01803  -0.2367  0.4138  1.0000  -2.9003   0.0000   0.0000   0.0000   0.3356
  10.500   2.1879   0.02516   0.01880  -0.2338  0.4097  1.0000  -2.9505   0.0000   0.0000   0.0000   0.3333
  10.750   2.2044   0.02566   0.01928  -0.2323  0.4057  1.0000  -3.0121   0.0000   0.0000   0.0000   0.3312
  11.000   2.2066   0.02656   0.02032  -0.2285  0.4008  1.0000  -3.0526   0.0000   0.0000   0.0000   0.3288
  11.250   2.2164   0.02727   0.02106  -0.2260  0.3961  1.0000  -3.1049   0.0000   0.0000   0.0000   0.3266
  11.500   2.2204   0.02827   0.02217  -0.2227  0.3912  1.0000  -3.1537   0.0000   0.0000   0.0000   0.3244
  11.750   2.2286   0.02916   0.02313  -0.2202  0.3868  1.0000  -3.2158   0.0000   0.0000   0.0000   0.3223
  12.000   2.2384   0.03010   0.02414  -0.2180  0.3829  1.0000  -3.2847   0.0000   0.0000   0.0000   0.3203
  12.250   2.2430   0.03129   0.02544  -0.2152  0.3785  1.0000  -3.3457   0.0000   0.0000   0.0000   0.3182
  12.500   2.2536   0.03225   0.02641  -0.2133  0.3743  1.0000  -3.4192   0.0000   0.0000   0.0000   0.3163
  12.750   2.2528   0.03385   0.02818  -0.2102  0.3694  1.0000  -3.4700   0.0000   0.0000   0.0000   0.3143
  13.000   2.2614   0.03501   0.02936  -0.2082  0.3652  1.0000  -3.5425   0.0000   0.0000   0.0000   0.3125
  13.250   2.2611   0.03680   0.03131  -0.2055  0.3605  1.0000  -3.5995   0.0000   0.0000   0.0000   0.3106
  13.500   2.2660   0.03832   0.03287  -0.2034  0.3560  1.0000  -3.6686   0.0000   0.0000   0.0000   0.3089
  13.750   2.2648   0.04039   0.03508  -0.2009  0.3508  1.0000  -3.7241   0.0000   0.0000   0.0000   0.3072
  14.000   2.2671   0.04227   0.03700  -0.1989  0.3457  1.0000  -3.7879   0.0000   0.0000   0.0000   0.3055
  14.250   2.2633   0.04480   0.03968  -0.1967  0.3401  1.0000  -3.8449   0.0000   0.0000   0.0000   0.3040
  14.500   2.2655   0.04686   0.04176  -0.1950  0.3351  1.0000  -3.9295   0.0000   0.0000   0.0000   0.3025
  14.750   2.2593   0.04988   0.04495  -0.1930  0.3292  1.0000  -3.9897   0.0000   0.0000   0.0000   0.3011
  15.000   2.2575   0.05253   0.04768  -0.1914  0.3238  1.0000  -4.0633   0.0000   0.0000   0.0000   0.2998
  15.250   2.2525   0.05565   0.05090  -0.1898  0.3178  1.0000  -4.1274   0.0000   0.0000   0.0000   0.2985
  15.500   2.2464   0.05901   0.05438  -0.1884  0.3117  1.0000  -4.1884   0.0000   0.0000   0.0000   0.2974
  15.750   2.2414   0.06230   0.05772  -0.1871  0.3057  1.0000  -4.2593   0.0000   0.0000   0.0000   0.2963
  16.000   2.2329   0.06615   0.06168  -0.1859  0.2990  1.0000  -4.3193   0.0000   0.0000   0.0000   0.2953
  16.250   2.2234   0.07024   0.06588  -0.1849  0.2920  1.0000  -4.3759   0.0000   0.0000   0.0000   0.2945
  16.500   2.2135   0.07447   0.07020  -0.1840  0.2848  1.0000  -4.4309   0.0000   0.0000   0.0000   0.2937
  16.750   2.2022   0.07896   0.07475  -0.1833  0.2772  1.0000  -4.4813   0.0000   0.0000   0.0000   0.2930
  17.000   2.1895   0.08373   0.07959  -0.1828  0.2691  1.0000  -4.5417   0.0000   0.0000   0.0000   0.2925
  17.250   2.1754   0.08882   0.08475  -0.1824  0.2606  1.0000  -4.6147   0.0000   0.0000   0.0000   0.2921
  17.500   2.1611   0.09399   0.08999  -0.1823  0.2516  1.0000  -4.6872   0.0000   0.0000   0.0000   0.2918
  17.750   2.1459   0.09935   0.09540  -0.1823  0.2421  1.0000  -4.7567   0.0000   0.0000   0.0000   0.2916
  18.000   2.1298   0.10493   0.10105  -0.1826  0.2316  1.0000  -4.8190   0.0000   0.0000   0.0000   0.2916
  18.250   2.1133   0.11058   0.10673  -0.1832  0.2205  1.0000  -4.8766   0.0000   0.0000   0.0000   0.2917
  18.500   2.0959   0.11639   0.11254  -0.1839  0.2091  1.0000  -4.9255   0.0000   0.0000   0.0000   0.2920
  18.750   2.0791   0.12213   0.11828  -0.1849  0.1972  1.0000  -4.9751   0.0000   0.0000   0.0000   0.2924
  19.000   2.0628   0.12783   0.12397  -0.1862  0.1850  1.0000  -5.0237   0.0000   0.0000   0.0000   0.2929
  19.250   2.0458   0.13360   0.12970  -0.1876  0.1737  1.0000  -5.0652   0.0000   0.0000   0.0000   0.2936
  19.500   2.0319   0.13892   0.13501  -0.1892  0.1627  1.0000  -5.1222   0.0000   0.0000   0.0000   0.2942
  19.750   2.0192   0.14403   0.14009  -0.1908  0.1529  1.0000  -5.1846   0.0000   0.0000   0.0000   0.2948
  20.000   2.0083   0.14886   0.14490  -0.1925  0.1441  1.0000  -5.2559   0.0000   0.0000   0.0000   0.2954
  20.250   1.9991   0.15339   0.14942  -0.1943  0.1362  1.0000  -5.3375   0.0000   0.0000   0.0000   0.2959
  20.500   1.9918   0.15762   0.15365  -0.1960  0.1287  1.0000  -5.4301   0.0000   0.0000   0.0000   0.2964
  20.750   1.9856   0.16167   0.15771  -0.1978  0.1219  1.0000  -5.5293   0.0000   0.0000   0.0000   0.2968
  21.000   1.9804   0.16553   0.16158  -0.1996  0.1155  1.0000  -5.6351   0.0000   0.0000   0.0000   0.2971
  21.250   1.9759   0.16927   0.16533  -0.2014  0.1095  1.0000  -5.7451   0.0000   0.0000   0.0000   0.2974
  21.500   1.9718   0.17295   0.16903  -0.2033  0.1038  1.0000  -5.8572   0.0000   0.0000   0.0000   0.2978
  21.750   1.9680   0.17656   0.17265  -0.2052  0.0986  1.0000  -5.9718   0.0000   0.0000   0.0000   0.2981
  22.000   1.9643   0.18012   0.17621  -0.2072  0.0937  1.0000  -6.0865   0.0000   0.0000   0.0000   0.2985
  22.250   1.9616   0.18355   0.17968  -0.2091  0.0886  1.0000  -6.2083   0.0000   0.0000   0.0000   0.2988
  22.500   1.9592   0.18689   0.18306  -0.2112  0.0838  1.0000  -6.3332   0.0000   0.0000   0.0000   0.2991
  22.750   1.9570   0.19016   0.18636  -0.2132  0.0792  1.0000  -6.4586   0.0000   0.0000   0.0000   0.2994
  23.000   1.9543   0.19353   0.18976  -0.2154  0.0750  1.0000  -6.5803   0.0000   0.0000   0.0000   0.2998
  23.250   1.9514   0.19693   0.19315  -0.2176  0.0712  1.0000  -6.7004   0.0000   0.0000   0.0000   0.3003
  23.500   1.9496   0.20014   0.19640  -0.2198  0.0671  1.0000  -6.8293   0.0000   0.0000   0.0000   0.3006
  23.750   1.9480   0.20330   0.19962  -0.2221  0.0633  1.0000  -6.9585   0.0000   0.0000   0.0000   0.3010
  24.000   1.9464   0.20642   0.20277  -0.2243  0.0599  1.0000  -7.0889   0.0000   0.0000   0.0000   0.3013
  24.250   1.9442   0.20962   0.20600  -0.2267  0.0567  1.0000  -7.2178   0.0000   0.0000   0.0000   0.3018
  24.500   1.9422   0.21280   0.20920  -0.2292  0.0537  1.0000  -7.3520   0.0000   0.0000   0.0000   0.3023
  24.750   1.9412   0.21579   0.21225  -0.2315  0.0506  1.0000  -7.4958   0.0000   0.0000   0.0000   0.3026
  25.000   1.9398   0.21881   0.21533  -0.2339  0.0479  1.0000  -7.6347   0.0000   0.0000   0.0000   0.3030


