xflr5 v6.59

 Calculated polar for: TKV2008

 1 1 Reynolds number fixed          Mach number fixed         

 xtrf =   1.000 (top)        1.000 (bottom)
 Mach =   0.000     Re =     0.240 e 6     Ncrit =   9.000

  alpha     CL        CD       CDp       Cm    Top Xtr Bot Xtr   Cpmin    Chinge    XCp    
 ------- -------- --------- --------- -------- ------- ------- -------- --------- ---------
 -24.500  -0.4496   0.26434   0.26037  -0.0008  1.0000  0.0120  -1.3425   0.0000   0.0000   0.0000   0.2063
 -24.250  -0.4424   0.26224   0.25827  -0.0023  1.0000  0.0121  -1.3223   0.0000   0.0000   0.0000   0.2030
 -24.000  -0.4351   0.26014   0.25619  -0.0037  1.0000  0.0122  -1.3071   0.0000   0.0000   0.0000   0.1996
 -23.750  -0.4278   0.25804   0.25410  -0.0052  1.0000  0.0124  -1.2943   0.0000   0.0000   0.0000   0.1961
 -23.500  -0.4204   0.25593   0.25199  -0.0066  1.0000  0.0125  -1.2826   0.0000   0.0000   0.0000   0.1924
 -23.250  -0.4130   0.25379   0.24986  -0.0080  1.0000  0.0126  -1.2779   0.0000   0.0000   0.0000   0.1887
 -23.000  -0.4056   0.25164   0.24772  -0.0094  1.0000  0.0127  -1.2747   0.0000   0.0000   0.0000   0.1848
 -22.750  -0.3981   0.24947   0.24556  -0.0107  1.0000  0.0129  -1.2719   0.0000   0.0000   0.0000   0.1808
 -22.500  -0.3907   0.24730   0.24340  -0.0120  1.0000  0.0130  -1.2693   0.0000   0.0000   0.0000   0.1768
 -22.250  -0.3833   0.24511   0.24122  -0.0134  1.0000  0.0132  -1.2668   0.0000   0.0000   0.0000   0.1726
 -22.000  -0.3759   0.24291   0.23903  -0.0146  1.0000  0.0133  -1.2648   0.0000   0.0000   0.0000   0.1683
 -21.750  -0.3685   0.24070   0.23683  -0.0159  1.0000  0.0135  -1.2641   0.0000   0.0000   0.0000   0.1639
 -20.500  -0.3319   0.22955   0.22575  -0.0220  1.0000  0.0137  -1.2942   0.0000   0.0000   0.0000   0.1393
 -20.250  -0.3247   0.22730   0.22352  -0.0230  1.0000  0.0138  -1.2717   0.0000   0.0000   0.0000   0.1347
 -20.000  -0.3176   0.22511   0.22134  -0.0239  1.0000  0.0139  -1.2567   0.0000   0.0000   0.0000   0.1298
 -19.750  -0.3105   0.22297   0.21922  -0.0249  1.0000  0.0140  -1.2461   0.0000   0.0000   0.0000   0.1246
 -19.500  -0.3034   0.22081   0.21708  -0.0259  1.0000  0.0142  -1.2381   0.0000   0.0000   0.0000   0.1192
 -19.250  -0.2964   0.21864   0.21492  -0.0268  1.0000  0.0143  -1.2316   0.0000   0.0000   0.0000   0.1137
 -19.000  -0.2894   0.21646   0.21276  -0.0277  1.0000  0.0145  -1.2261   0.0000   0.0000   0.0000   0.1080
 -18.750  -0.2825   0.21426   0.21058  -0.0286  1.0000  0.0146  -1.2214   0.0000   0.0000   0.0000   0.1023
 -18.500  -0.2757   0.21205   0.20839  -0.0294  1.0000  0.0148  -1.2172   0.0000   0.0000   0.0000   0.0963
 -18.250  -0.2689   0.20987   0.20623  -0.0302  1.0000  0.0150  -1.2141   0.0000   0.0000   0.0000   0.0903
 -16.750  -0.2316   0.19676   0.19326  -0.0341  1.0000  0.0155  -1.2480   0.0000   0.0000   0.0000   0.0527
 -16.500  -0.2259   0.19464   0.19118  -0.0344  1.0000  0.0156  -1.2295   0.0000   0.0000   0.0000   0.0473
 -16.250  -0.2205   0.19259   0.18916  -0.0347  1.0000  0.0158  -1.2181   0.0000   0.0000   0.0000   0.0419
 -16.000  -0.2153   0.19057   0.18716  -0.0350  1.0000  0.0159  -1.2107   0.0000   0.0000   0.0000   0.0367
 -15.750  -0.2105   0.18858   0.18521  -0.0351  1.0000  0.0161  -1.2060   0.0000   0.0000   0.0000   0.0321
 -15.500  -0.2061   0.18663   0.18330  -0.0352  1.0000  0.0163  -1.2032   0.0000   0.0000   0.0000   0.0281
 -15.250  -0.2023   0.18474   0.18144  -0.0351  1.0000  0.0165  -1.2021   0.0000   0.0000   0.0000   0.0253
 -15.000  -0.1992   0.18292   0.17967  -0.0349  1.0000  0.0167  -1.2028   0.0000   0.0000   0.0000   0.0240
 -14.750  -0.1971   0.18127   0.17806  -0.0344  1.0000  0.0169  -1.2057   0.0000   0.0000   0.0000   0.0250
 -14.000  -0.1345   0.16976   0.16654  -0.0493  0.9930  0.0174  -1.2124   0.0000   0.0000   0.0000  -0.1911
 -13.750  -0.1125   0.16602   0.16278  -0.0542  0.9909  0.0176  -1.1668   0.0000   0.0000   0.0000  -0.3205
 -13.500  -0.0918   0.16220   0.15896  -0.0587  0.9876  0.0179  -1.1426   0.0000   0.0000   0.0000  -0.4992
 -13.250  -0.0699   0.15840   0.15516  -0.0637  0.9853  0.0182  -1.1328   0.0000   0.0000   0.0000  -0.8045
 -13.000  -0.0499   0.15459   0.15133  -0.0680  0.9816  0.0185  -1.1284   0.0000   0.0000   0.0000  -1.3140
 -12.750  -0.0283   0.15073   0.14746  -0.0729  0.9792  0.0189  -1.1299   0.0000   0.0000   0.0000  -2.6770
 -12.500  -0.0093   0.14694   0.14368  -0.0771  0.9747  0.0191  -1.1447   0.0000   0.0000   0.0000  -9.1124
 -12.000   0.0302   0.13929   0.13602  -0.0855  0.9666  0.0194  -1.1411   0.0000   0.0000   0.0000   3.4118
 -11.750   0.0480   0.13570   0.13243  -0.0888  0.9602  0.0197  -1.1116   0.0000   0.0000   0.0000   2.3046
 -11.500   0.0649   0.13221   0.12895  -0.0918  0.9525  0.0200  -1.0946   0.0000   0.0000   0.0000   1.8155
 -11.250   0.0771   0.12911   0.12587  -0.0935  0.9392  0.0204  -1.0871   0.0000   0.0000   0.0000   1.5877
 -11.000   0.0901   0.12596   0.12272  -0.0955  0.9249  0.0208  -1.0858   0.0000   0.0000   0.0000   1.4155
 -10.750   0.1061   0.12254   0.11929  -0.0985  0.9125  0.0211  -1.0989   0.0000   0.0000   0.0000   1.2667
 -10.500   0.1269   0.11868   0.11540  -0.1031  0.9023  0.0213  -1.1136   0.0000   0.0000   0.0000   1.1360
 -10.250   0.1541   0.11446   0.11113  -0.1084  0.8930  0.0217  -1.0525   0.0000   0.0000   0.0000   1.0143
 -10.000   0.1869   0.10992   0.10651  -0.1159  0.8836  0.0224  -1.0340   0.0000   0.0000   0.0000   0.9204
  -9.750   0.2268   0.10488   0.10137  -0.1258  0.8741  0.0231  -1.0502   0.0000   0.0000   0.0000   0.8471
  -9.500   0.2745   0.09940   0.09575  -0.1380  0.8628  0.0235  -1.0491   0.0000   0.0000   0.0000   0.7884
  -9.250   0.3263   0.09416   0.09031  -0.1504  0.8475  0.0243  -0.9925   0.0000   0.0000   0.0000   0.7420
  -9.000   0.3621   0.09028   0.08621  -0.1587  0.8249  0.0251  -0.9856   0.0000   0.0000   0.0000   0.7165
  -8.750   0.3806   0.08779   0.08352  -0.1628  0.8032  0.0255  -1.0348   0.0000   0.0000   0.0000   0.7043
  -8.500   0.3958   0.08546   0.08105  -0.1643  0.7861  0.0258  -1.0025   0.0000   0.0000   0.0000   0.6899
  -8.250   0.4075   0.08356   0.07904  -0.1651  0.7715  0.0263  -1.0121   0.0000   0.0000   0.0000   0.6786
  -8.000   0.4179   0.08172   0.07711  -0.1658  0.7592  0.0269  -1.0207   0.0000   0.0000   0.0000   0.6690
  -7.750   0.4267   0.07993   0.07524  -0.1665  0.7484  0.0276  -1.0277   0.0000   0.0000   0.0000   0.6614
  -7.500   0.4350   0.07814   0.07337  -0.1674  0.7391  0.0279  -1.0338   0.0000   0.0000   0.0000   0.6550
  -7.250   0.4450   0.07630   0.07150  -0.1671  0.7295  0.0283  -1.0441   0.0000   0.0000   0.0000   0.6446
  -7.000   0.4541   0.07461   0.06978  -0.1672  0.7211  0.0290  -1.0524   0.0000   0.0000   0.0000   0.6362
  -6.750   0.4627   0.07290   0.06800  -0.1680  0.7139  0.0300  -1.0588   0.0000   0.0000   0.0000   0.6300
  -6.500   0.4690   0.07119   0.06630  -0.1679  0.7061  0.0304  -1.0643   0.0000   0.0000   0.0000   0.6240
  -6.250   0.4794   0.06951   0.06457  -0.1678  0.6997  0.0312  -1.0750   0.0000   0.0000   0.0000   0.6151
  -6.000   0.4859   0.06793   0.06299  -0.1676  0.6930  0.0321  -1.0816   0.0000   0.0000   0.0000   0.6090
  -5.750   0.4866   0.06667   0.06172  -0.1676  0.6872  0.0327  -1.0817   0.0000   0.0000   0.0000   0.6079
  -5.500   0.4961   0.06493   0.05997  -0.1668  0.6810  0.0331  -1.0924   0.0000   0.0000   0.0000   0.5987
  -5.250   0.5071   0.06332   0.05832  -0.1672  0.6759  0.0340  -1.1023   0.0000   0.0000   0.0000   0.5913
  -5.000   0.5156   0.06167   0.05669  -0.1683  0.6700  0.0351  -1.1081   0.0000   0.0000   0.0000   0.5871
  -4.750   0.5296   0.05969   0.05465  -0.1703  0.6655  0.0357  -1.1178   0.0000   0.0000   0.0000   0.5814
  -4.500   0.5404   0.05810   0.05310  -0.1703  0.6598  0.0367  -1.1275   0.0000   0.0000   0.0000   0.5742
  -4.250   0.5605   0.05568   0.05064  -0.1766  0.6549  0.0383  -1.1354   0.0000   0.0000   0.0000   0.5732
  -4.000   0.5731   0.05411   0.04906  -0.1753  0.6499  0.0390  -1.1499   0.0000   0.0000   0.0000   0.5632
  -3.750   0.6017   0.05124   0.04617  -0.1836  0.6448  0.0413  -1.1631   0.0000   0.0000   0.0000   0.5616
  -3.500   0.6181   0.04976   0.04461  -0.1826  0.6409  0.0424  -1.1806   0.0000   0.0000   0.0000   0.5513
  -3.000   0.6813   0.04435   0.03913  -0.1957  0.6313  0.0482  -1.2176   0.0000   0.0000   0.0000   0.5415
  -2.750   0.7238   0.04129   0.03597  -0.2042  0.6270  0.0518  -1.2429   0.0000   0.0000   0.0000   0.5357
  -2.500   0.7475   0.03971   0.03438  -0.2057  0.6221  0.0543  -1.2620   0.0000   0.0000   0.0000   0.5280
  -2.250   0.8082   0.03580   0.03026  -0.2185  0.6178  0.0603  -1.2978   0.0000   0.0000   0.0000   0.5225
  -2.000   0.8709   0.03208   0.02630  -0.2307  0.6130  0.0695  -1.3361   0.0000   0.0000   0.0000   0.5164
  -1.250   1.0662   0.02032   0.01268  -0.2605  0.5998  0.0484  -1.4612   0.0000   0.0000   0.0000   0.4943
  -1.000   1.1050   0.01927   0.01120  -0.2628  0.5956  0.0475  -1.4923   0.0000   0.0000   0.0000   0.4873
  -0.750   1.1406   0.01860   0.01019  -0.2643  0.5918  0.0476  -1.5221   0.0000   0.0000   0.0000   0.4807
  -0.500   1.1697   0.01816   0.00973  -0.2646  0.5871  0.0495  -1.5485   0.0000   0.0000   0.0000   0.4747
  -0.250   1.2014   0.01782   0.00926  -0.2653  0.5832  0.0525  -1.5781   0.0000   0.0000   0.0000   0.4689
   0.000   1.2324   0.01760   0.00901  -0.2660  0.5795  0.0566  -1.6073   0.0000   0.0000   0.0000   0.4634
   0.250   1.2610   0.01743   0.00890  -0.2662  0.5750  0.0627  -1.6348   0.0000   0.0000   0.0000   0.4582
   0.500   1.2927   0.01731   0.00875  -0.2671  0.5712  0.0748  -1.6650   0.0000   0.0000   0.0000   0.4532
   0.750   1.3264   0.01701   0.00884  -0.2686  0.5672  0.2115  -1.6961   0.0000   0.0000   0.0000   0.4486
   1.000   1.3524   0.01713   0.00903  -0.2683  0.5627  0.2785  -1.7226   0.0000   0.0000   0.0000   0.4441
   1.250   1.3814   0.01723   0.00913  -0.2686  0.5592  0.3251  -1.7524   0.0000   0.0000   0.0000   0.4397
   1.500   1.4094   0.01732   0.00936  -0.2689  0.5555  0.3895  -1.7812   0.0000   0.0000   0.0000   0.4355
   1.750   1.4376   0.01719   0.00976  -0.2692  0.5513  0.6007  -1.8104   0.0000   0.0000   0.0000   0.4316
   2.000   1.4550   0.01684   0.00977  -0.2666  0.5481  1.0000  -1.8345   0.0000   0.0000   0.0000   0.4271
   2.250   1.4832   0.01712   0.00989  -0.2668  0.5446  1.0000  -1.8662   0.0000   0.0000   0.0000   0.4232
   2.500   1.5079   0.01736   0.01009  -0.2663  0.5402  1.0000  -1.8951   0.0000   0.0000   0.0000   0.4195
   2.750   1.5359   0.01760   0.01020  -0.2664  0.5367  1.0000  -1.9271   0.0000   0.0000   0.0000   0.4158
   3.000   1.5636   0.01788   0.01037  -0.2664  0.5333  1.0000  -1.9589   0.0000   0.0000   0.0000   0.4124
   3.250   1.5874   0.01815   0.01066  -0.2658  0.5291  1.0000  -1.9871   0.0000   0.0000   0.0000   0.4089
   3.500   1.6146   0.01840   0.01082  -0.2658  0.5257  1.0000  -2.0186   0.0000   0.0000   0.0000   0.4056
   3.750   1.6431   0.01869   0.01100  -0.2660  0.5226  1.0000  -2.0514   0.0000   0.0000   0.0000   0.4024
   4.000   1.6650   0.01900   0.01135  -0.2651  0.5183  1.0000  -2.0780   0.0000   0.0000   0.0000   0.3992
   4.250   1.6912   0.01926   0.01156  -0.2649  0.5148  1.0000  -2.1089   0.0000   0.0000   0.0000   0.3962
   4.500   1.7205   0.01954   0.01172  -0.2653  0.5118  1.0000  -2.1427   0.0000   0.0000   0.0000   0.3933
   4.750   1.7405   0.01987   0.01215  -0.2640  0.5074  1.0000  -2.1676   0.0000   0.0000   0.0000   0.3903
   5.000   1.7657   0.02015   0.01240  -0.2637  0.5038  1.0000  -2.1993   0.0000   0.0000   0.0000   0.3874
   5.250   1.7950   0.02043   0.01257  -0.2641  0.5010  1.0000  -2.2373   0.0000   0.0000   0.0000   0.3848
   5.500   1.8142   0.02081   0.01306  -0.2627  0.4969  1.0000  -2.2654   0.0000   0.0000   0.0000   0.3819
   5.750   1.8381   0.02111   0.01336  -0.2622  0.4933  1.0000  -2.2983   0.0000   0.0000   0.0000   0.3792
   6.000   1.8666   0.02138   0.01355  -0.2625  0.4904  1.0000  -2.3359   0.0000   0.0000   0.0000   0.3767
   6.250   1.8861   0.02180   0.01407  -0.2612  0.4866  1.0000  -2.3643   0.0000   0.0000   0.0000   0.3741
   6.500   1.9083   0.02215   0.01446  -0.2604  0.4830  1.0000  -2.3957   0.0000   0.0000   0.0000   0.3715
   6.750   1.9356   0.02244   0.01470  -0.2605  0.4801  1.0000  -2.4334   0.0000   0.0000   0.0000   0.3692
   7.000   1.9563   0.02286   0.01518  -0.2594  0.4765  1.0000  -2.4653   0.0000   0.0000   0.0000   0.3667
   7.500   2.0020   0.02354   0.01589  -0.2581  0.4695  1.0000  -2.5342   0.0000   0.0000   0.0000   0.3620
   7.750   2.0227   0.02397   0.01638  -0.2571  0.4661  1.0000  -2.5663   0.0000   0.0000   0.0000   0.3596
   8.000   2.0399   0.02441   0.01692  -0.2554  0.4622  1.0000  -2.5951   0.0000   0.0000   0.0000   0.3572
   8.250   2.0653   0.02471   0.01719  -0.2553  0.4590  1.0000  -2.6325   0.0000   0.0000   0.0000   0.3550
   8.500   2.0853   0.02518   0.01772  -0.2542  0.4555  1.0000  -2.6641   0.0000   0.0000   0.0000   0.3528
   8.750   2.1001   0.02570   0.01836  -0.2521  0.4518  1.0000  -2.6902   0.0000   0.0000   0.0000   0.3504
   9.000   2.1240   0.02606   0.01874  -0.2517  0.4487  1.0000  -2.7259   0.0000   0.0000   0.0000   0.3483
   9.250   2.1469   0.02651   0.01921  -0.2512  0.4457  1.0000  -2.7604   0.0000   0.0000   0.0000   0.3463
   9.500   2.1559   0.02713   0.01999  -0.2481  0.4417  1.0000  -2.7806   0.0000   0.0000   0.0000   0.3438
   9.750   2.1768   0.02750   0.02038  -0.2472  0.4384  1.0000  -2.8217   0.0000   0.0000   0.0000   0.3417
  10.000   2.1987   0.02795   0.02085  -0.2466  0.4352  1.0000  -2.8803   0.0000   0.0000   0.0000   0.3397
  10.250   2.2018   0.02869   0.02176  -0.2425  0.4315  1.0000  -2.9212   0.0000   0.0000   0.0000   0.3372
  10.500   2.2206   0.02916   0.02228  -0.2413  0.4283  1.0000  -2.9854   0.0000   0.0000   0.0000   0.3351
  10.750   2.2444   0.02956   0.02269  -0.2410  0.4250  1.0000  -3.0577   0.0000   0.0000   0.0000   0.3333
  11.000   2.2382   0.03049   0.02381  -0.2354  0.4206  1.0000  -3.0858   0.0000   0.0000   0.0000   0.3305
  11.250   2.2599   0.03067   0.02394  -0.2347  0.4160  1.0000  -3.1627   0.0000   0.0000   0.0000   0.3286
  11.500   2.2495   0.03184   0.02531  -0.2287  0.4110  1.0000  -3.1921   0.0000   0.0000   0.0000   0.3259
  11.750   2.2646   0.03223   0.02569  -0.2270  0.4062  1.0000  -3.2691   0.0000   0.0000   0.0000   0.3238
  12.000   2.2586   0.03354   0.02716  -0.2222  0.4014  1.0000  -3.3103   0.0000   0.0000   0.0000   0.3214
  12.250   2.2674   0.03436   0.02806  -0.2197  0.3971  1.0000  -3.3801   0.0000   0.0000   0.0000   0.3193
  12.500   2.2763   0.03530   0.02908  -0.2174  0.3932  1.0000  -3.4504   0.0000   0.0000   0.0000   0.3173
  12.750   2.2724   0.03682   0.03076  -0.2135  0.3887  1.0000  -3.4956   0.0000   0.0000   0.0000   0.3151
  13.000   2.2896   0.03734   0.03127  -0.2124  0.3844  1.0000  -3.5892   0.0000   0.0000   0.0000   0.3133
  13.250   2.2745   0.03966   0.03380  -0.2075  0.3795  1.0000  -3.6149   0.0000   0.0000   0.0000   0.3111
  13.500   2.2900   0.04030   0.03444  -0.2063  0.3751  1.0000  -3.7080   0.0000   0.0000   0.0000   0.3093
  13.750   2.2739   0.04303   0.03739  -0.2020  0.3701  1.0000  -3.7310   0.0000   0.0000   0.0000   0.3074
  14.000   2.2835   0.04410   0.03850  -0.2003  0.3655  1.0000  -3.8126   0.0000   0.0000   0.0000   0.3057
  14.250   2.2689   0.04709   0.04168  -0.1968  0.3603  1.0000  -3.8464   0.0000   0.0000   0.0000   0.3040
  14.500   2.2775   0.04831   0.04291  -0.1953  0.3552  1.0000  -3.9498   0.0000   0.0000   0.0000   0.3023
  14.750   2.2578   0.05215   0.04696  -0.1920  0.3495  1.0000  -3.9720   0.0000   0.0000   0.0000   0.3009
  15.000   2.2613   0.05399   0.04885  -0.1905  0.3442  1.0000  -4.0613   0.0000   0.0000   0.0000   0.2994
  15.250   2.2448   0.05796   0.05300  -0.1881  0.3381  1.0000  -4.0922   0.0000   0.0000   0.0000   0.2982
  15.500   2.2378   0.06115   0.05629  -0.1864  0.3324  1.0000  -4.1506   0.0000   0.0000   0.0000   0.2970
  15.750   2.2339   0.06407   0.05928  -0.1850  0.3264  1.0000  -4.2183   0.0000   0.0000   0.0000   0.2958
  16.000   2.2150   0.06893   0.06432  -0.1835  0.3198  1.0000  -4.2426   0.0000   0.0000   0.0000   0.2950
  16.250   2.2069   0.07263   0.06811  -0.1824  0.3133  1.0000  -4.3031   0.0000   0.0000   0.0000   0.2941
  16.500   2.2028   0.07586   0.07139  -0.1816  0.3067  1.0000  -4.3771   0.0000   0.0000   0.0000   0.2931
  16.750   2.1816   0.08155   0.07725  -0.1808  0.2992  1.0000  -4.3929   0.0000   0.0000   0.0000   0.2928
  17.000   2.1659   0.08665   0.08247  -0.1803  0.2915  1.0000  -4.4260   0.0000   0.0000   0.0000   0.2924
  17.250   2.1526   0.09151   0.08742  -0.1801  0.2837  1.0000  -4.4749   0.0000   0.0000   0.0000   0.2920
  17.500   2.1403   0.09629   0.09227  -0.1800  0.2754  1.0000  -4.5531   0.0000   0.0000   0.0000   0.2916
  17.750   2.1266   0.10134   0.09741  -0.1802  0.2666  1.0000  -4.6229   0.0000   0.0000   0.0000   0.2915
  18.000   2.1125   0.10652   0.10265  -0.1806  0.2573  1.0000  -4.6887   0.0000   0.0000   0.0000   0.2914
  18.250   2.0985   0.11174   0.10793  -0.1812  0.2473  1.0000  -4.7562   0.0000   0.0000   0.0000   0.2915
  18.500   2.0842   0.11704   0.11328  -0.1820  0.2369  1.0000  -4.8208   0.0000   0.0000   0.0000   0.2917
  18.750   2.0720   0.12200   0.11825  -0.1829  0.2261  1.0000  -4.8960   0.0000   0.0000   0.0000   0.2918
  19.000   2.0596   0.12701   0.12325  -0.1840  0.2149  1.0000  -4.9675   0.0000   0.0000   0.0000   0.2921
  19.250   2.0454   0.13236   0.12862  -0.1854  0.2031  1.0000  -5.0248   0.0000   0.0000   0.0000   0.2926
  19.500   2.0336   0.13726   0.13348  -0.1868  0.1915  1.0000  -5.0961   0.0000   0.0000   0.0000   0.2930
  19.750   2.0214   0.14227   0.13847  -0.1884  0.1800  1.0000  -5.1609   0.0000   0.0000   0.0000   0.2936
  20.000   2.0106   0.14702   0.14319  -0.1901  0.1692  1.0000  -5.2336   0.0000   0.0000   0.0000   0.2941
  20.250   2.0014   0.15148   0.14760  -0.1918  0.1594  1.0000  -5.3152   0.0000   0.0000   0.0000   0.2946
  20.500   1.9939   0.15565   0.15171  -0.1935  0.1504  1.0000  -5.4066   0.0000   0.0000   0.0000   0.2950
  20.750   1.9873   0.15967   0.15570  -0.1952  0.1421  1.0000  -5.5032   0.0000   0.0000   0.0000   0.2954
  21.000   1.9818   0.16351   0.15951  -0.1970  0.1345  1.0000  -5.6061   0.0000   0.0000   0.0000   0.2957
  21.250   1.9771   0.16722   0.16322  -0.1988  0.1274  1.0000  -5.7139   0.0000   0.0000   0.0000   0.2961
  21.500   1.9731   0.17082   0.16682  -0.2006  0.1207  1.0000  -5.8263   0.0000   0.0000   0.0000   0.2964
  21.750   1.9694   0.17437   0.17039  -0.2025  0.1145  1.0000  -5.9408   0.0000   0.0000   0.0000   0.2967
  22.000   1.9663   0.17780   0.17386  -0.2044  0.1085  1.0000  -6.0584   0.0000   0.0000   0.0000   0.2970
  22.250   1.9640   0.18108   0.17716  -0.2063  0.1030  1.0000  -6.1823   0.0000   0.0000   0.0000   0.2972
  22.500   1.9623   0.18422   0.18030  -0.2082  0.0980  1.0000  -6.3112   0.0000   0.0000   0.0000   0.2974
  22.750   1.9612   0.18720   0.18326  -0.2100  0.0932  1.0000  -6.4462   0.0000   0.0000   0.0000   0.2975
  23.000   1.9593   0.19041   0.18651  -0.2121  0.0885  1.0000  -6.5732   0.0000   0.0000   0.0000   0.2978
  23.250   1.9574   0.19361   0.18978  -0.2142  0.0839  1.0000  -6.6985   0.0000   0.0000   0.0000   0.2981
  23.500   1.9562   0.19663   0.19283  -0.2163  0.0797  1.0000  -6.8311   0.0000   0.0000   0.0000   0.2983
  23.750   1.9551   0.19961   0.19581  -0.2184  0.0757  1.0000  -6.9660   0.0000   0.0000   0.0000   0.2986
  24.000   1.9538   0.20266   0.19888  -0.2206  0.0719  1.0000  -7.0990   0.0000   0.0000   0.0000   0.2989
  24.250   1.9515   0.20588   0.20218  -0.2230  0.0681  1.0000  -7.2205   0.0000   0.0000   0.0000   0.2993
  24.500   1.9499   0.20895   0.20529  -0.2253  0.0646  1.0000  -7.3492   0.0000   0.0000   0.0000   0.2997
  24.750   1.9489   0.21187   0.20821  -0.2276  0.0613  1.0000  -7.4922   0.0000   0.0000   0.0000   0.3000
  25.000   1.9465   0.21511   0.21151  -0.2303  0.0581  1.0000  -7.6209   0.0000   0.0000   0.0000   0.3006


