xflr5 v6.59

 Calculated polar for: TKV2008

 1 1 Reynolds number fixed          Mach number fixed         

 xtrf =   1.000 (top)        1.000 (bottom)
 Mach =   0.000     Re =     0.600 e 6     Ncrit =   9.000

  alpha     CL        CD       CDp       Cm    Top Xtr Bot Xtr   Cpmin    Chinge    XCp    
 ------- -------- --------- --------- -------- ------- ------- -------- --------- ---------
 -23.000  -0.4153   0.25100   0.24854  -0.0060  1.0000  0.0073  -1.4003   0.0000   0.0000   0.0000   0.1945
 -22.750  -0.4081   0.24892   0.24646  -0.0072  1.0000  0.0074  -1.3718   0.0000   0.0000   0.0000   0.1911
 -22.500  -0.4009   0.24683   0.24438  -0.0085  1.0000  0.0074  -1.3513   0.0000   0.0000   0.0000   0.1875
 -22.250  -0.3936   0.24473   0.24229  -0.0098  1.0000  0.0075  -1.3360   0.0000   0.0000   0.0000   0.1838
 -22.000  -0.3863   0.24258   0.24015  -0.0111  1.0000  0.0076  -1.3233   0.0000   0.0000   0.0000   0.1799
 -21.750  -0.3789   0.24046   0.23803  -0.0124  1.0000  0.0077  -1.3124   0.0000   0.0000   0.0000   0.1760
 -21.500  -0.3715   0.23828   0.23587  -0.0136  1.0000  0.0078  -1.3026   0.0000   0.0000   0.0000   0.1719
 -21.250  -0.3642   0.23610   0.23369  -0.0148  1.0000  0.0079  -1.2935   0.0000   0.0000   0.0000   0.1677
 -21.000  -0.3569   0.23389   0.23149  -0.0159  1.0000  0.0080  -1.2847   0.0000   0.0000   0.0000   0.1634
 -20.750  -0.3496   0.23167   0.22928  -0.0171  1.0000  0.0081  -1.2762   0.0000   0.0000   0.0000   0.1590
 -20.500  -0.3424   0.22943   0.22705  -0.0182  1.0000  0.0082  -1.2678   0.0000   0.0000   0.0000   0.1545
 -17.750  -0.2674   0.20434   0.20209  -0.0282  1.0000  0.0088  -1.3549   0.0000   0.0000   0.0000   0.0988
 -17.500  -0.2612   0.20222   0.19999  -0.0286  1.0000  0.0089  -1.3193   0.0000   0.0000   0.0000   0.0942
 -17.250  -0.2551   0.20016   0.19794  -0.0292  1.0000  0.0089  -1.2917   0.0000   0.0000   0.0000   0.0894
 -17.000  -0.2456   0.19770   0.19549  -0.0307  0.9997  0.0090  -1.2699   0.0000   0.0000   0.0000   0.0773
 -16.750  -0.2267   0.19423   0.19202  -0.0352  0.9986  0.0091  -1.2502   0.0000   0.0000   0.0000   0.0437
 -16.500  -0.2079   0.19079   0.18857  -0.0395  0.9973  0.0093  -1.2350   0.0000   0.0000   0.0000   0.0040
 -16.250  -0.1887   0.18729   0.18507  -0.0440  0.9962  0.0094  -1.2225   0.0000   0.0000   0.0000  -0.0446
 -16.000  -0.1708   0.18374   0.18151  -0.0480  0.9945  0.0096  -1.2121   0.0000   0.0000   0.0000  -0.0987
 -15.750  -0.1522   0.18019   0.17795  -0.0523  0.9930  0.0098  -1.2036   0.0000   0.0000   0.0000  -0.1690
 -15.500  -0.1329   0.17656   0.17432  -0.0567  0.9918  0.0100  -1.1982   0.0000   0.0000   0.0000  -0.2638
 -15.250  -0.1130   0.17290   0.17065  -0.0613  0.9909  0.0101  -1.1978   0.0000   0.0000   0.0000  -0.3949
 -15.000  -0.0972   0.16935   0.16710  -0.0646  0.9885  0.0102  -1.2068   0.0000   0.0000   0.0000  -0.5328
 -14.000  -0.0266   0.15474   0.15247  -0.0803  0.9821  0.0104  -1.2268   0.0000   0.0000   0.0000  -3.2017
 -13.750  -0.0075   0.15123   0.14896  -0.0843  0.9805  0.0105  -1.1836   0.0000   0.0000   0.0000  -12.5497
 -13.500   0.0130   0.14761   0.14533  -0.0888  0.9794  0.0107  -1.1565   0.0000   0.0000   0.0000   7.9365
 -13.250   0.0282   0.14434   0.14206  -0.0916  0.9761  0.0108  -1.1420   0.0000   0.0000   0.0000   3.8986
 -12.500   0.0797   0.13397   0.13169  -0.1018  0.9667  0.0115  -1.1185   0.0000   0.0000   0.0000   1.6661
 -12.250   0.0905   0.13101   0.12874  -0.1032  0.9596  0.0117  -1.1236   0.0000   0.0000   0.0000   1.5102
 -12.000   0.0822   0.12989   0.12765  -0.0988  0.9340  0.0118  -1.1412   0.0000   0.0000   0.0000   1.5793
 -11.750   0.1006   0.12607   0.12381  -0.1026  0.9165  0.0119  -1.1672   0.0000   0.0000   0.0000   1.3727
 -11.250   0.1821   0.11440   0.11196  -0.1237  0.8958  0.0121  -1.1633   0.0000   0.0000   0.0000   0.9892
  -9.500   0.3566   0.09077   0.08702  -0.1619  0.7237  0.0138  -1.1546   0.0000   0.0000   0.0000   0.7345
  -9.250   0.3657   0.08897   0.08516  -0.1619  0.7119  0.0139  -1.0986   0.0000   0.0000   0.0000   0.7215
  -9.000   0.3745   0.08722   0.08334  -0.1620  0.7013  0.0140  -1.0641   0.0000   0.0000   0.0000   0.7100
  -8.750   0.3832   0.08542   0.08150  -0.1622  0.6915  0.0143  -1.0444   0.0000   0.0000   0.0000   0.6994
  -8.500   0.3919   0.08357   0.07962  -0.1625  0.6828  0.0146  -1.0352   0.0000   0.0000   0.0000   0.6894
  -8.250   0.4003   0.08170   0.07771  -0.1628  0.6751  0.0149  -1.0341   0.0000   0.0000   0.0000   0.6801
  -8.000   0.4086   0.07979   0.07577  -0.1630  0.6678  0.0151  -1.0440   0.0000   0.0000   0.0000   0.6714
  -7.750   0.4159   0.07778   0.07374  -0.1635  0.6614  0.0154  -1.0965   0.0000   0.0000   0.0000   0.6644
  -7.500   0.4194   0.07578   0.07173  -0.1643  0.6552  0.0155  -1.2191   0.0000   0.0000   0.0000   0.6621
  -7.250   0.4306   0.07393   0.06987  -0.1639  0.6491  0.0156  -1.1266   0.0000   0.0000   0.0000   0.6497
  -7.000   0.4395   0.07230   0.06821  -0.1636  0.6433  0.0157  -1.0738   0.0000   0.0000   0.0000   0.6403
  -6.750   0.4478   0.07067   0.06657  -0.1635  0.6380  0.0159  -1.0585   0.0000   0.0000   0.0000   0.6321
  -6.500   0.4551   0.06903   0.06492  -0.1633  0.6326  0.0162  -1.0658   0.0000   0.0000   0.0000   0.6247
  -6.250   0.4615   0.06740   0.06327  -0.1629  0.6279  0.0166  -1.0725   0.0000   0.0000   0.0000   0.6179
  -6.000   0.4659   0.06571   0.06160  -0.1622  0.6229  0.0170  -1.0779   0.0000   0.0000   0.0000   0.6123
  -5.750   0.4592   0.06406   0.05997  -0.1609  0.6185  0.0173  -1.2261   0.0000   0.0000   0.0000   0.6137
  -5.500   0.4671   0.06238   0.05829  -0.1602  0.6140  0.0174  -1.1893   0.0000   0.0000   0.0000   0.6054
  -5.250   0.4760   0.06089   0.05681  -0.1597  0.6093  0.0176  -1.1308   0.0000   0.0000   0.0000   0.5970
  -5.000   0.4852   0.05933   0.05523  -0.1598  0.6054  0.0179  -1.1046   0.0000   0.0000   0.0000   0.5900
  -4.750   0.4949   0.05759   0.05350  -0.1603  0.6013  0.0183  -1.1094   0.0000   0.0000   0.0000   0.5837
  -4.500   0.5061   0.05543   0.05135  -0.1620  0.5973  0.0190  -1.1598   0.0000   0.0000   0.0000   0.5791
  -4.250   0.5204   0.05289   0.04879  -0.1650  0.5936  0.0194  -1.2354   0.0000   0.0000   0.0000   0.5752
  -4.000   0.5344   0.05134   0.04725  -0.1655  0.5896  0.0197  -1.1586   0.0000   0.0000   0.0000   0.5669
  -3.750   0.5517   0.04934   0.04524  -0.1677  0.5855  0.0203  -1.1500   0.0000   0.0000   0.0000   0.5604
  -3.500   0.5847   0.04526   0.04110  -0.1768  0.5819  0.0213  -1.2908   0.0000   0.0000   0.0000   0.5579
  -3.250   0.6029   0.04375   0.03959  -0.1776  0.5781  0.0216  -1.1887   0.0000   0.0000   0.0000   0.5494
  -3.000   0.6313   0.04136   0.03717  -0.1821  0.5741  0.0225  -1.2009   0.0000   0.0000   0.0000   0.5425
  -2.750   0.7285   0.03292   0.02848  -0.2084  0.5703  0.0255  -1.4069   0.0000   0.0000   0.0000   0.5392
  -2.500   0.7501   0.03218   0.02774  -0.2086  0.5666  0.0258  -1.2665   0.0000   0.0000   0.0000   0.5307
  -2.250   0.8422   0.02555   0.02081  -0.2290  0.5623  0.0300  -1.3344   0.0000   0.0000   0.0000   0.5236
  -2.000   0.9328   0.01996   0.01450  -0.2467  0.5582  0.0356  -1.4086   0.0000   0.0000   0.0000   0.5156
  -1.750   1.0110   0.01498   0.00856  -0.2586  0.5542  0.0252  -1.6457   0.0000   0.0000   0.0000   0.5066
  -1.500   1.0481   0.01404   0.00730  -0.2607  0.5502  0.0252  -1.5988   0.0000   0.0000   0.0000   0.4990
  -1.250   1.0817   0.01346   0.00647  -0.2619  0.5467  0.0253  -1.5244   0.0000   0.0000   0.0000   0.4919
  -1.000   1.1129   0.01304   0.00599  -0.2627  0.5430  0.0260  -1.5102   0.0000   0.0000   0.0000   0.4853
  -0.750   1.1428   0.01278   0.00569  -0.2631  0.5391  0.0271  -1.5377   0.0000   0.0000   0.0000   0.4790
  -0.500   1.1724   0.01264   0.00547  -0.2635  0.5354  0.0288  -1.5652   0.0000   0.0000   0.0000   0.4730
  -0.250   1.2017   0.01249   0.00531  -0.2638  0.5316  0.0309  -1.5929   0.0000   0.0000   0.0000   0.4674
   0.000   1.2307   0.01238   0.00519  -0.2641  0.5278  0.0333  -1.6217   0.0000   0.0000   0.0000   0.4619
   0.250   1.2595   0.01235   0.00513  -0.2644  0.5245  0.0366  -1.6505   0.0000   0.0000   0.0000   0.4567
   0.500   1.2882   0.01233   0.00509  -0.2646  0.5210  0.0411  -1.6791   0.0000   0.0000   0.0000   0.4518
   0.750   1.3166   0.01227   0.00507  -0.2647  0.5174  0.0498  -1.7077   0.0000   0.0000   0.0000   0.4470
   1.000   1.3470   0.01210   0.00515  -0.2655  0.5139  0.1737  -1.7377   0.0000   0.0000   0.0000   0.4426
   1.250   1.3740   0.01219   0.00528  -0.2654  0.5105  0.2229  -1.7656   0.0000   0.0000   0.0000   0.4382
   1.500   1.4003   0.01225   0.00538  -0.2652  0.5066  0.2514  -1.7932   0.0000   0.0000   0.0000   0.4339
   1.750   1.4266   0.01234   0.00549  -0.2650  0.5031  0.2787  -1.8216   0.0000   0.0000   0.0000   0.4298
   2.000   1.4534   0.01244   0.00564  -0.2649  0.4998  0.3246  -1.8517   0.0000   0.0000   0.0000   0.4258
   2.250   1.4812   0.01237   0.00585  -0.2651  0.4962  0.4542  -1.8837   0.0000   0.0000   0.0000   0.4221
   2.500   1.5077   0.01220   0.00619  -0.2650  0.4928  0.7477  -1.9151   0.0000   0.0000   0.0000   0.4184
   3.000   1.5542   0.01224   0.00641  -0.2631  0.4861  1.0000  -1.9726   0.0000   0.0000   0.0000   0.4110
   3.250   1.5791   0.01240   0.00653  -0.2626  0.4825  1.0000  -2.0028   0.0000   0.0000   0.0000   0.4076
   3.500   1.6038   0.01263   0.00667  -0.2621  0.4792  1.0000  -2.0330   0.0000   0.0000   0.0000   0.4042
   3.750   1.6279   0.01278   0.00682  -0.2615  0.4755  1.0000  -2.0624   0.0000   0.0000   0.0000   0.4009
   4.000   1.6517   0.01296   0.00698  -0.2608  0.4720  1.0000  -2.0919   0.0000   0.0000   0.0000   0.3977
   4.250   1.6755   0.01320   0.00715  -0.2601  0.4688  1.0000  -2.1214   0.0000   0.0000   0.0000   0.3946
   4.500   1.6990   0.01338   0.00734  -0.2594  0.4654  1.0000  -2.1505   0.0000   0.0000   0.0000   0.3915
   4.750   1.7221   0.01358   0.00753  -0.2585  0.4619  1.0000  -2.1794   0.0000   0.0000   0.0000   0.3885
   5.000   1.7450   0.01383   0.00774  -0.2577  0.4588  1.0000  -2.2083   0.0000   0.0000   0.0000   0.3856
   5.250   1.7680   0.01406   0.00796  -0.2570  0.4557  1.0000  -2.2371   0.0000   0.0000   0.0000   0.3827
   5.500   1.7904   0.01427   0.00819  -0.2561  0.4523  1.0000  -2.2692   0.0000   0.0000   0.0000   0.3799
   5.750   1.8126   0.01452   0.00843  -0.2551  0.4491  1.0000  -2.3012   0.0000   0.0000   0.0000   0.3772
   6.000   1.8348   0.01481   0.00869  -0.2543  0.4461  1.0000  -2.3332   0.0000   0.0000   0.0000   0.3745
   6.250   1.8562   0.01503   0.00895  -0.2532  0.4426  1.0000  -2.3645   0.0000   0.0000   0.0000   0.3718
   6.500   1.8770   0.01530   0.00922  -0.2521  0.4391  1.0000  -2.3955   0.0000   0.0000   0.0000   0.3692
   6.750   1.8979   0.01563   0.00952  -0.2510  0.4358  1.0000  -2.4266   0.0000   0.0000   0.0000   0.3667
   7.000   1.9184   0.01588   0.00983  -0.2498  0.4322  1.0000  -2.4588   0.0000   0.0000   0.0000   0.3641
   7.250   1.9384   0.01619   0.01014  -0.2486  0.4288  1.0000  -2.4911   0.0000   0.0000   0.0000   0.3616
   7.500   1.9587   0.01658   0.01050  -0.2475  0.4258  1.0000  -2.5236   0.0000   0.0000   0.0000   0.3592
   7.750   1.9785   0.01687   0.01086  -0.2462  0.4225  1.0000  -2.5555   0.0000   0.0000   0.0000   0.3568
   8.000   1.9979   0.01720   0.01123  -0.2450  0.4193  1.0000  -2.5872   0.0000   0.0000   0.0000   0.3544
   8.250   2.0169   0.01762   0.01163  -0.2436  0.4163  1.0000  -2.6186   0.0000   0.0000   0.0000   0.3521
   8.500   2.0356   0.01799   0.01206  -0.2423  0.4130  1.0000  -2.6495   0.0000   0.0000   0.0000   0.3498
   8.750   2.0538   0.01838   0.01249  -0.2409  0.4095  1.0000  -2.6801   0.0000   0.0000   0.0000   0.3475
   9.000   2.0716   0.01884   0.01295  -0.2394  0.4065  1.0000  -2.7102   0.0000   0.0000   0.0000   0.3453
   9.250   2.0892   0.01930   0.01346  -0.2380  0.4034  1.0000  -2.7401   0.0000   0.0000   0.0000   0.3430
   9.500   2.1064   0.01975   0.01397  -0.2364  0.4000  1.0000  -2.7695   0.0000   0.0000   0.0000   0.3408
   9.750   2.1222   0.02028   0.01452  -0.2347  0.3965  1.0000  -2.7978   0.0000   0.0000   0.0000   0.3386
  10.000   2.1371   0.02084   0.01513  -0.2329  0.3924  1.0000  -2.8250   0.0000   0.0000   0.0000   0.3365
  10.250   2.1507   0.02143   0.01578  -0.2309  0.3877  1.0000  -2.8705   0.0000   0.0000   0.0000   0.3343
  10.500   2.1637   0.02213   0.01649  -0.2289  0.3835  1.0000  -2.9260   0.0000   0.0000   0.0000   0.3321
  10.750   2.1768   0.02279   0.01723  -0.2270  0.3787  1.0000  -2.9820   0.0000   0.0000   0.0000   0.3300
  11.000   2.1878   0.02364   0.01808  -0.2248  0.3745  1.0000  -3.0353   0.0000   0.0000   0.0000   0.3279
  11.250   2.2008   0.02437   0.01891  -0.2230  0.3699  1.0000  -3.0915   0.0000   0.0000   0.0000   0.3259
  11.500   2.2110   0.02531   0.01987  -0.2208  0.3657  1.0000  -3.1459   0.0000   0.0000   0.0000   0.3239
  11.750   2.2223   0.02621   0.02086  -0.2189  0.3612  1.0000  -3.2132   0.0000   0.0000   0.0000   0.3219
  12.000   2.2313   0.02729   0.02198  -0.2168  0.3567  1.0000  -3.2810   0.0000   0.0000   0.0000   0.3199
  12.250   2.2408   0.02839   0.02315  -0.2148  0.3525  1.0000  -3.3512   0.0000   0.0000   0.0000   0.3180
  12.500   2.2496   0.02957   0.02439  -0.2128  0.3479  1.0000  -3.4209   0.0000   0.0000   0.0000   0.3162
  12.750   2.2565   0.03094   0.02581  -0.2108  0.3433  1.0000  -3.4869   0.0000   0.0000   0.0000   0.3143
  13.000   2.2634   0.03236   0.02731  -0.2088  0.3380  1.0000  -3.5569   0.0000   0.0000   0.0000   0.3125
  13.250   2.2687   0.03398   0.02898  -0.2068  0.3329  1.0000  -3.6264   0.0000   0.0000   0.0000   0.3108
  13.500   2.2733   0.03572   0.03079  -0.2049  0.3275  1.0000  -3.6945   0.0000   0.0000   0.0000   0.3091
  13.750   2.2779   0.03754   0.03268  -0.2031  0.3224  1.0000  -3.7628   0.0000   0.0000   0.0000   0.3075
  14.000   2.2798   0.03966   0.03486  -0.2012  0.3172  1.0000  -3.8260   0.0000   0.0000   0.0000   0.3059
  14.250   2.2832   0.04172   0.03700  -0.1996  0.3117  1.0000  -3.9113   0.0000   0.0000   0.0000   0.3044
  14.500   2.2818   0.04431   0.03963  -0.1978  0.3064  1.0000  -3.9860   0.0000   0.0000   0.0000   0.3030
  14.750   2.2832   0.04672   0.04213  -0.1963  0.3003  1.0000  -4.0685   0.0000   0.0000   0.0000   0.3016
  15.000   2.2807   0.04959   0.04507  -0.1947  0.2943  1.0000  -4.1408   0.0000   0.0000   0.0000   0.3003
  15.500   2.2712   0.05611   0.05172  -0.1917  0.2806  1.0000  -4.2852   0.0000   0.0000   0.0000   0.2979
  15.750   2.2649   0.05968   0.05536  -0.1904  0.2733  1.0000  -4.3535   0.0000   0.0000   0.0000   0.2968
  16.000   2.2559   0.06367   0.05941  -0.1892  0.2657  1.0000  -4.4132   0.0000   0.0000   0.0000   0.2959
  16.250   2.2446   0.06805   0.06383  -0.1880  0.2576  1.0000  -4.4652   0.0000   0.0000   0.0000   0.2950
  16.500   2.2310   0.07283   0.06867  -0.1870  0.2488  1.0000  -4.5095   0.0000   0.0000   0.0000   0.2943
  16.750   2.2162   0.07788   0.07376  -0.1862  0.2388  1.0000  -4.5513   0.0000   0.0000   0.0000   0.2937
  17.000   2.1983   0.08345   0.07936  -0.1855  0.2281  1.0000  -4.6084   0.0000   0.0000   0.0000   0.2933
  17.250   2.1781   0.08945   0.08538  -0.1851  0.2171  1.0000  -4.6556   0.0000   0.0000   0.0000   0.2931
  17.500   2.1576   0.09561   0.09155  -0.1849  0.2061  1.0000  -4.6991   0.0000   0.0000   0.0000   0.2931
  17.750   2.1378   0.10173   0.09768  -0.1850  0.1937  1.0000  -4.7438   0.0000   0.0000   0.0000   0.2931
  18.000   2.1168   0.10810   0.10405  -0.1854  0.1817  1.0000  -4.7780   0.0000   0.0000   0.0000   0.2934
  18.250   2.0973   0.11427   0.11022  -0.1860  0.1697  1.0000  -4.8171   0.0000   0.0000   0.0000   0.2937
  18.500   2.0780   0.12046   0.11639  -0.1869  0.1590  1.0000  -4.8528   0.0000   0.0000   0.0000   0.2942
  18.750   2.0620   0.12614   0.12207  -0.1879  0.1492  1.0000  -4.9051   0.0000   0.0000   0.0000   0.2946
  19.000   2.0487   0.13141   0.12733  -0.1891  0.1403  1.0000  -4.9707   0.0000   0.0000   0.0000   0.2950
  19.250   2.0377   0.13631   0.13225  -0.1903  0.1323  1.0000  -5.0480   0.0000   0.0000   0.0000   0.2953
  19.500   2.0283   0.14096   0.13690  -0.1917  0.1248  1.0000  -5.1339   0.0000   0.0000   0.0000   0.2956
  19.750   2.0199   0.14544   0.14139  -0.1931  0.1181  1.0000  -5.2244   0.0000   0.0000   0.0000   0.2959
  20.000   2.0127   0.14972   0.14568  -0.1946  0.1120  1.0000  -5.3217   0.0000   0.0000   0.0000   0.2962
  20.250   2.0064   0.15383   0.14981  -0.1961  0.1060  1.0000  -5.4244   0.0000   0.0000   0.0000   0.2965
  20.500   2.0006   0.15786   0.15386  -0.1977  0.1004  1.0000  -5.5292   0.0000   0.0000   0.0000   0.2968
  20.750   1.9968   0.16154   0.15756  -0.1993  0.0950  1.0000  -5.6481   0.0000   0.0000   0.0000   0.2969
  21.000   1.9931   0.16520   0.16124  -0.2009  0.0898  1.0000  -5.7675   0.0000   0.0000   0.0000   0.2971
  21.250   1.9893   0.16884   0.16491  -0.2026  0.0849  1.0000  -5.8861   0.0000   0.0000   0.0000   0.2974
  21.500   1.9861   0.17238   0.16847  -0.2043  0.0802  1.0000  -6.0089   0.0000   0.0000   0.0000   0.2976
  21.750   1.9829   0.17590   0.17201  -0.2062  0.0756  1.0000  -6.1315   0.0000   0.0000   0.0000   0.2978
  22.250   1.9769   0.18283   0.17898  -0.2100  0.0672  1.0000  -6.3791   0.0000   0.0000   0.0000   0.2984
  22.500   1.9750   0.18608   0.18225  -0.2119  0.0631  1.0000  -6.5118   0.0000   0.0000   0.0000   0.2986
  22.750   1.9728   0.18936   0.18556  -0.2139  0.0593  1.0000  -6.6418   0.0000   0.0000   0.0000   0.2988
  23.000   1.9708   0.19262   0.18885  -0.2159  0.0559  1.0000  -6.7733   0.0000   0.0000   0.0000   0.2991
  23.250   1.9685   0.19590   0.19214  -0.2180  0.0527  1.0000  -6.9024   0.0000   0.0000   0.0000   0.2994
  23.500   1.9665   0.19910   0.19538  -0.2201  0.0497  1.0000  -7.0397   0.0000   0.0000   0.0000   0.2998
  23.750   1.9661   0.20201   0.19833  -0.2221  0.0467  1.0000  -7.1951   0.0000   0.0000   0.0000   0.2999
  24.000   1.9647   0.20508   0.20144  -0.2243  0.0441  1.0000  -7.3398   0.0000   0.0000   0.0000   0.3002
  24.250   1.9627   0.20826   0.20465  -0.2266  0.0417  1.0000  -7.4804   0.0000   0.0000   0.0000   0.3005
  24.500   1.9611   0.21133   0.20775  -0.2288  0.0393  1.0000  -7.6245   0.0000   0.0000   0.0000   0.3009
  24.750   1.9600   0.21430   0.21077  -0.2311  0.0369  1.0000  -7.7736   0.0000   0.0000   0.0000   0.3012
  25.000   1.9588   0.21728   0.21379  -0.2334  0.0346  1.0000  -7.9214   0.0000   0.0000   0.0000   0.3015


