xflr5 v6.59

 Calculated polar for: TKV2008

 1 1 Reynolds number fixed          Mach number fixed         

 xtrf =   1.000 (top)        1.000 (bottom)
 Mach =   0.000     Re =     0.180 e 6     Ncrit =   9.000

  alpha     CL        CD       CDp       Cm    Top Xtr Bot Xtr   Cpmin    Chinge    XCp    
 ------- -------- --------- --------- -------- ------- ------- -------- --------- ---------
 -25.000  -0.4618   0.26883   0.26421   0.0013  1.0000  0.0144  -1.3045   0.0000   0.0000   0.0000   0.2108
 -24.750  -0.4544   0.26673   0.26212  -0.0002  1.0000  0.0146  -1.2961   0.0000   0.0000   0.0000   0.2075
 -24.500  -0.4471   0.26461   0.26001  -0.0018  1.0000  0.0148  -1.2911   0.0000   0.0000   0.0000   0.2040
 -24.250  -0.4397   0.26247   0.25788  -0.0033  1.0000  0.0149  -1.2863   0.0000   0.0000   0.0000   0.2005
 -24.000  -0.4323   0.26032   0.25574  -0.0048  1.0000  0.0151  -1.2818   0.0000   0.0000   0.0000   0.1969
 -23.750  -0.4249   0.25816   0.25359  -0.0062  1.0000  0.0152  -1.2776   0.0000   0.0000   0.0000   0.1932
 -23.500  -0.4174   0.25600   0.25144  -0.0077  1.0000  0.0153  -1.2760   0.0000   0.0000   0.0000   0.1893
 -23.250  -0.4100   0.25380   0.24925  -0.0091  1.0000  0.0154  -1.2820   0.0000   0.0000   0.0000   0.1853
 -22.500  -0.3878   0.24726   0.24274  -0.0133  1.0000  0.0155  -1.2943   0.0000   0.0000   0.0000   0.1728
 -22.250  -0.3805   0.24508   0.24058  -0.0145  1.0000  0.0157  -1.2775   0.0000   0.0000   0.0000   0.1688
 -22.000  -0.3731   0.24294   0.23845  -0.0158  1.0000  0.0158  -1.2652   0.0000   0.0000   0.0000   0.1645
 -21.750  -0.3657   0.24081   0.23634  -0.0170  1.0000  0.0160  -1.2553   0.0000   0.0000   0.0000   0.1601
 -21.500  -0.3583   0.23864   0.23418  -0.0182  1.0000  0.0161  -1.2464   0.0000   0.0000   0.0000   0.1555
 -21.250  -0.3509   0.23647   0.23202  -0.0194  1.0000  0.0163  -1.2381   0.0000   0.0000   0.0000   0.1508
 -21.000  -0.3436   0.23429   0.22986  -0.0206  1.0000  0.0165  -1.2302   0.0000   0.0000   0.0000   0.1459
 -20.750  -0.3362   0.23213   0.22771  -0.0217  1.0000  0.0166  -1.2233   0.0000   0.0000   0.0000   0.1409
 -20.500  -0.3290   0.22992   0.22553  -0.0229  1.0000  0.0168  -1.2244   0.0000   0.0000   0.0000   0.1358
 -20.250  -0.3217   0.22772   0.22333  -0.0240  1.0000  0.0170  -1.2268   0.0000   0.0000   0.0000   0.1305
 -20.000  -0.3145   0.22550   0.22114  -0.0250  1.0000  0.0171  -1.2309   0.0000   0.0000   0.0000   0.1250
 -19.750  -0.3073   0.22325   0.21891  -0.0261  1.0000  0.0172  -1.2374   0.0000   0.0000   0.0000   0.1193
 -19.000  -0.2864   0.21665   0.21237  -0.0290  1.0000  0.0174  -1.2414   0.0000   0.0000   0.0000   0.1019
 -18.750  -0.2795   0.21448   0.21022  -0.0298  1.0000  0.0176  -1.2246   0.0000   0.0000   0.0000   0.0961
 -18.500  -0.2726   0.21232   0.20808  -0.0306  1.0000  0.0178  -1.2128   0.0000   0.0000   0.0000   0.0901
 -18.250  -0.2659   0.21016   0.20595  -0.0314  1.0000  0.0180  -1.2035   0.0000   0.0000   0.0000   0.0839
 -18.000  -0.2592   0.20801   0.20382  -0.0321  1.0000  0.0182  -1.1956   0.0000   0.0000   0.0000   0.0776
 -17.750  -0.2527   0.20585   0.20169  -0.0328  1.0000  0.0184  -1.1886   0.0000   0.0000   0.0000   0.0711
 -17.500  -0.2463   0.20369   0.19956  -0.0335  1.0000  0.0186  -1.1831   0.0000   0.0000   0.0000   0.0646
 -17.250  -0.2401   0.20154   0.19743  -0.0341  1.0000  0.0188  -1.1874   0.0000   0.0000   0.0000   0.0581
 -17.000  -0.2340   0.19941   0.19533  -0.0347  1.0000  0.0189  -1.1943   0.0000   0.0000   0.0000   0.0514
 -16.750  -0.2281   0.19732   0.19327  -0.0352  1.0000  0.0191  -1.2048   0.0000   0.0000   0.0000   0.0447
 -16.000  -0.2120   0.19102   0.18707  -0.0364  1.0000  0.0193  -1.2256   0.0000   0.0000   0.0000   0.0263
 -15.750  -0.2070   0.18896   0.18505  -0.0365  1.0000  0.0195  -1.2092   0.0000   0.0000   0.0000   0.0214
 -15.500  -0.2024   0.18701   0.18314  -0.0366  1.0000  0.0197  -1.1990   0.0000   0.0000   0.0000   0.0169
 -15.250  -0.1983   0.18511   0.18129  -0.0365  1.0000  0.0199  -1.1921   0.0000   0.0000   0.0000   0.0133
 -15.000  -0.1948   0.18329   0.17951  -0.0364  1.0000  0.0202  -1.1881   0.0000   0.0000   0.0000   0.0110
 -14.750  -0.1922   0.18156   0.17783  -0.0360  1.0000  0.0205  -1.1871   0.0000   0.0000   0.0000   0.0105
 -14.500  -0.1908   0.17999   0.17632  -0.0354  1.0000  0.0207  -1.1897   0.0000   0.0000   0.0000   0.0129
 -14.250  -0.1914   0.17867   0.17507  -0.0345  1.0000  0.0209  -1.1968   0.0000   0.0000   0.0000   0.0199
 -14.000  -0.1741   0.17536   0.17177  -0.0386  0.9979  0.0211  -1.2029   0.0000   0.0000   0.0000  -0.0265
 -13.750  -0.1512   0.17141   0.16781  -0.0443  0.9949  0.0212  -1.2072   0.0000   0.0000   0.0000  -0.1062
 -13.500  -0.1282   0.16740   0.16379  -0.0492  0.9919  0.0215  -1.1646   0.0000   0.0000   0.0000  -0.2092
 -13.250  -0.1056   0.16350   0.15988  -0.0543  0.9885  0.0219  -1.1451   0.0000   0.0000   0.0000  -0.3555
 -13.000  -0.0828   0.15961   0.15598  -0.0595  0.9854  0.0223  -1.1341   0.0000   0.0000   0.0000  -0.5863
 -12.750  -0.0611   0.15564   0.15200  -0.0644  0.9811  0.0227  -1.1303   0.0000   0.0000   0.0000  -0.9630
 -12.000   0.0027   0.14388   0.14022  -0.0786  0.9678  0.0235  -1.1319   0.0000   0.0000   0.0000  33.1731
 -11.750   0.0228   0.14008   0.13643  -0.0826  0.9619  0.0240  -1.1047   0.0000   0.0000   0.0000   4.2925
 -11.500   0.0420   0.13636   0.13271  -0.0864  0.9548  0.0245  -1.0900   0.0000   0.0000   0.0000   2.5336
 -11.250   0.0601   0.13272   0.12906  -0.0900  0.9464  0.0251  -1.0863   0.0000   0.0000   0.0000   1.9044
 -11.000   0.0773   0.12926   0.12560  -0.0937  0.9371  0.0255  -1.1120   0.0000   0.0000   0.0000   1.5855
 -10.750   0.0942   0.12562   0.12197  -0.0965  0.9267  0.0258  -1.0841   0.0000   0.0000   0.0000   1.3730
 -10.500   0.1104   0.12228   0.11863  -0.0990  0.9145  0.0263  -1.0553   0.0000   0.0000   0.0000   1.2300
 -10.250   0.1305   0.11864   0.11496  -0.1028  0.9051  0.0269  -1.0385   0.0000   0.0000   0.0000   1.1076
 -10.000   0.1534   0.11481   0.11110  -0.1077  0.8966  0.0275  -1.0507   0.0000   0.0000   0.0000   1.0112
  -9.750   0.1797   0.11073   0.10696  -0.1139  0.8886  0.0278  -1.0813   0.0000   0.0000   0.0000   0.9347
  -9.500   0.2126   0.10616   0.10232  -0.1206  0.8807  0.0285  -1.0290   0.0000   0.0000   0.0000   0.8601
  -8.750   0.3367   0.09204   0.08780  -0.1500  0.8480  0.0311  -0.9784   0.0000   0.0000   0.0000   0.7240
  -8.500   0.3702   0.08842   0.08401  -0.1575  0.8307  0.0323  -0.9869   0.0000   0.0000   0.0000   0.7014
  -8.250   0.3936   0.08561   0.08103  -0.1629  0.8140  0.0328  -0.9999   0.0000   0.0000   0.0000   0.6879
  -8.000   0.4131   0.08309   0.07837  -0.1652  0.7994  0.0336  -1.0150   0.0000   0.0000   0.0000   0.6725
  -7.750   0.4258   0.08117   0.07634  -0.1666  0.7860  0.0348  -1.0247   0.0000   0.0000   0.0000   0.6626
  -7.500   0.4347   0.07952   0.07461  -0.1682  0.7744  0.0355  -1.0302   0.0000   0.0000   0.0000   0.6571
  -7.250   0.4482   0.07743   0.07243  -0.1684  0.7642  0.0363  -1.0425   0.0000   0.0000   0.0000   0.6449
  -7.000   0.4569   0.07579   0.07075  -0.1687  0.7542  0.0374  -1.0499   0.0000   0.0000   0.0000   0.6372
  -6.750   0.4623   0.07439   0.06932  -0.1695  0.7451  0.0382  -1.0528   0.0000   0.0000   0.0000   0.6337
  -6.500   0.4749   0.07233   0.06720  -0.1696  0.7374  0.0388  -1.0645   0.0000   0.0000   0.0000   0.6232
  -6.250   0.4835   0.07073   0.06557  -0.1694  0.7293  0.0398  -1.0731   0.0000   0.0000   0.0000   0.6156
  -6.000   0.4888   0.06931   0.06414  -0.1695  0.7220  0.0410  -1.0777   0.0000   0.0000   0.0000   0.6110
  -5.750   0.4948   0.06778   0.06258  -0.1695  0.7155  0.0415  -1.0833   0.0000   0.0000   0.0000   0.6061
  -5.500   0.5025   0.06630   0.06110  -0.1686  0.7087  0.0425  -1.0920   0.0000   0.0000   0.0000   0.5980
  -5.250   0.5127   0.06475   0.05950  -0.1697  0.7029  0.0440  -1.0996   0.0000   0.0000   0.0000   0.5927
  -5.000   0.5199   0.06319   0.05798  -0.1707  0.6965  0.0447  -1.1042   0.0000   0.0000   0.0000   0.5891
  -4.750   0.5343   0.06141   0.05614  -0.1711  0.6912  0.0461  -1.1167   0.0000   0.0000   0.0000   0.5802
  -4.500   0.5476   0.05970   0.05445  -0.1760  0.6853  0.0479  -1.1204   0.0000   0.0000   0.0000   0.5806
  -4.250   0.5606   0.05790   0.05263  -0.1743  0.6801  0.0491  -1.1353   0.0000   0.0000   0.0000   0.5693
  -4.000   0.5816   0.05577   0.05047  -0.1799  0.6749  0.0517  -1.1461   0.0000   0.0000   0.0000   0.5669
  -3.750   0.5944   0.05421   0.04892  -0.1788  0.6693  0.0537  -1.1597   0.0000   0.0000   0.0000   0.5577
  -3.500   0.6219   0.05182   0.04643  -0.1843  0.6649  0.0564  -1.1768   0.0000   0.0000   0.0000   0.5524
  -3.250   0.6507   0.04932   0.04394  -0.1913  0.6590  0.0599  -1.1915   0.0000   0.0000   0.0000   0.5493
  -3.000   0.6702   0.04768   0.04225  -0.1915  0.6547  0.0623  -1.2092   0.0000   0.0000   0.0000   0.5403
  -2.750   0.7018   0.04529   0.03982  -0.1971  0.6498  0.0661  -1.2287   0.0000   0.0000   0.0000   0.5347
  -1.000   1.0971   0.02228   0.01406  -0.2624  0.6173  0.0590  -1.4793   0.0000   0.0000   0.0000   0.4889
  -0.750   1.1305   0.02147   0.01299  -0.2637  0.6123  0.0583  -1.5061   0.0000   0.0000   0.0000   0.4824
  -0.500   1.1639   0.02090   0.01216  -0.2647  0.6079  0.0605  -1.5357   0.0000   0.0000   0.0000   0.4761
  -0.250   1.1980   0.02048   0.01155  -0.2659  0.6044  0.0634  -1.5668   0.0000   0.0000   0.0000   0.4701
   0.000   1.2247   0.02028   0.01139  -0.2657  0.5992  0.0685  -1.5918   0.0000   0.0000   0.0000   0.4647
   0.250   1.2562   0.02003   0.01114  -0.2665  0.5952  0.0763  -1.6212   0.0000   0.0000   0.0000   0.4594
   0.500   1.2888   0.01989   0.01102  -0.2675  0.5916  0.0929  -1.6514   0.0000   0.0000   0.0000   0.4544
   0.750   1.3192   0.01966   0.01126  -0.2683  0.5866  0.2413  -1.6791   0.0000   0.0000   0.0000   0.4497
   1.000   1.3486   0.01979   0.01137  -0.2687  0.5828  0.3135  -1.7088   0.0000   0.0000   0.0000   0.4451
   1.250   1.3764   0.01993   0.01162  -0.2689  0.5787  0.3758  -1.7371   0.0000   0.0000   0.0000   0.4408
   1.500   1.4038   0.01998   0.01194  -0.2690  0.5741  0.4671  -1.7648   0.0000   0.0000   0.0000   0.4366
   1.750   1.4226   0.01948   0.01212  -0.2667  0.5709  0.8766  -1.7885   0.0000   0.0000   0.0000   0.4320
   2.000   1.4480   0.01974   0.01224  -0.2663  0.5671  1.0000  -1.8174   0.0000   0.0000   0.0000   0.4279
   2.250   1.4732   0.02009   0.01250  -0.2659  0.5627  1.0000  -1.8459   0.0000   0.0000   0.0000   0.4240
   2.500   1.5023   0.02035   0.01259  -0.2662  0.5592  1.0000  -1.8785   0.0000   0.0000   0.0000   0.4203
   2.750   1.5284   0.02071   0.01287  -0.2660  0.5553  1.0000  -1.9082   0.0000   0.0000   0.0000   0.4166
   3.000   1.5527   0.02107   0.01319  -0.2654  0.5509  1.0000  -1.9362   0.0000   0.0000   0.0000   0.4131
   3.250   1.5815   0.02134   0.01333  -0.2657  0.5476  1.0000  -1.9689   0.0000   0.0000   0.0000   0.4097
   3.500   1.6068   0.02173   0.01368  -0.2654  0.5438  1.0000  -1.9979   0.0000   0.0000   0.0000   0.4064
   3.750   1.6300   0.02213   0.01408  -0.2647  0.5396  1.0000  -2.0251   0.0000   0.0000   0.0000   0.4031
   4.000   1.6583   0.02240   0.01425  -0.2649  0.5363  1.0000  -2.0574   0.0000   0.0000   0.0000   0.4000
   4.250   1.6836   0.02279   0.01461  -0.2646  0.5327  1.0000  -2.0868   0.0000   0.0000   0.0000   0.3969
   4.500   1.7053   0.02323   0.01508  -0.2637  0.5284  1.0000  -2.1126   0.0000   0.0000   0.0000   0.3939
   4.750   1.7331   0.02350   0.01528  -0.2638  0.5251  1.0000  -2.1453   0.0000   0.0000   0.0000   0.3910
   5.000   1.7584   0.02390   0.01565  -0.2635  0.5216  1.0000  -2.1784   0.0000   0.0000   0.0000   0.3882
   5.250   1.7785   0.02438   0.01620  -0.2623  0.5172  1.0000  -2.2068   0.0000   0.0000   0.0000   0.3853
   5.500   1.8057   0.02467   0.01644  -0.2624  0.5140  1.0000  -2.2425   0.0000   0.0000   0.0000   0.3826
   5.750   1.8317   0.02506   0.01681  -0.2623  0.5108  1.0000  -2.2770   0.0000   0.0000   0.0000   0.3800
   6.000   1.8492   0.02564   0.01748  -0.2607  0.5064  1.0000  -2.3028   0.0000   0.0000   0.0000   0.3773
   6.250   1.8755   0.02595   0.01778  -0.2606  0.5031  1.0000  -2.3378   0.0000   0.0000   0.0000   0.3747
   6.500   1.9039   0.02629   0.01806  -0.2610  0.5003  1.0000  -2.3749   0.0000   0.0000   0.0000   0.3723
   6.750   1.9176   0.02700   0.01893  -0.2587  0.4959  1.0000  -2.3985   0.0000   0.0000   0.0000   0.3697
   7.000   1.9423   0.02737   0.01930  -0.2584  0.4926  1.0000  -2.4342   0.0000   0.0000   0.0000   0.3673
   7.250   1.9741   0.02758   0.01943  -0.2593  0.4899  1.0000  -2.4774   0.0000   0.0000   0.0000   0.3651
   7.500   1.9828   0.02841   0.02047  -0.2562  0.4853  1.0000  -2.4963   0.0000   0.0000   0.0000   0.3625
   7.750   2.0063   0.02880   0.02088  -0.2557  0.4818  1.0000  -2.5309   0.0000   0.0000   0.0000   0.3602
   8.000   2.0382   0.02899   0.02100  -0.2567  0.4792  1.0000  -2.5746   0.0000   0.0000   0.0000   0.3581
   8.250   2.0444   0.02992   0.02214  -0.2532  0.4746  1.0000  -2.5907   0.0000   0.0000   0.0000   0.3555
   8.500   2.0667   0.03032   0.02258  -0.2525  0.4710  1.0000  -2.6243   0.0000   0.0000   0.0000   0.3533
   8.750   2.0994   0.03048   0.02267  -0.2537  0.4684  1.0000  -2.6691   0.0000   0.0000   0.0000   0.3514
   9.000   2.1018   0.03156   0.02399  -0.2497  0.4640  1.0000  -2.6809   0.0000   0.0000   0.0000   0.3488
   9.250   2.1220   0.03208   0.02457  -0.2487  0.4606  1.0000  -2.7119   0.0000   0.0000   0.0000   0.3467
   9.500   2.1545   0.03227   0.02472  -0.2498  0.4580  1.0000  -2.7585   0.0000   0.0000   0.0000   0.3448
   9.750   2.1541   0.03342   0.02609  -0.2454  0.4536  1.0000  -2.7788   0.0000   0.0000   0.0000   0.3423
  10.000   2.1711   0.03397   0.02671  -0.2439  0.4499  1.0000  -2.8275   0.0000   0.0000   0.0000   0.3401
  10.250   2.2062   0.03405   0.02675  -0.2455  0.4472  1.0000  -2.9137   0.0000   0.0000   0.0000   0.3385
  10.500   2.1953   0.03549   0.02845  -0.2393  0.4430  1.0000  -2.9332   0.0000   0.0000   0.0000   0.3357
  10.750   2.2083   0.03619   0.02924  -0.2372  0.4396  1.0000  -2.9885   0.0000   0.0000   0.0000   0.3335
  11.000   2.2482   0.03616   0.02917  -0.2396  0.4367  1.0000  -3.0852   0.0000   0.0000   0.0000   0.3321
  11.250   2.2231   0.03791   0.03117  -0.2313  0.4322  1.0000  -3.0837   0.0000   0.0000   0.0000   0.3290
  11.500   2.2431   0.03805   0.03133  -0.2302  0.4278  1.0000  -3.1644   0.0000   0.0000   0.0000   0.3270
  11.750   2.2412   0.03905   0.03244  -0.2258  0.4230  1.0000  -3.2090   0.0000   0.0000   0.0000   0.3246
  12.000   2.2465   0.03968   0.03314  -0.2226  0.4179  1.0000  -3.2700   0.0000   0.0000   0.0000   0.3223
  12.250   2.2508   0.04056   0.03411  -0.2194  0.4131  1.0000  -3.3312   0.0000   0.0000   0.0000   0.3201
  12.500   2.2467   0.04195   0.03563  -0.2153  0.4083  1.0000  -3.3759   0.0000   0.0000   0.0000   0.3178
  12.750   2.2755   0.04186   0.03554  -0.2157  0.4044  1.0000  -3.4859   0.0000   0.0000   0.0000   0.3161
  13.000   2.2438   0.04500   0.03894  -0.2086  0.3995  1.0000  -3.4750   0.0000   0.0000   0.0000   0.3137
  13.250   2.2773   0.04449   0.03839  -0.2094  0.3955  1.0000  -3.6043   0.0000   0.0000   0.0000   0.3120
  13.500   2.2411   0.04836   0.04253  -0.2026  0.3904  1.0000  -3.5833   0.0000   0.0000   0.0000   0.3098
  13.750   2.2641   0.04832   0.04250  -0.2022  0.3859  1.0000  -3.6931   0.0000   0.0000   0.0000   0.3081
  14.000   2.2333   0.05238   0.04678  -0.1970  0.3806  1.0000  -3.6823   0.0000   0.0000   0.0000   0.3063
  14.250   2.2512   0.05271   0.04714  -0.1961  0.3759  1.0000  -3.7831   0.0000   0.0000   0.0000   0.3045
  14.500   2.2175   0.05756   0.05222  -0.1916  0.3704  1.0000  -3.7645   0.0000   0.0000   0.0000   0.3031
  14.750   2.2413   0.05734   0.05200  -0.1912  0.3656  1.0000  -3.9078   0.0000   0.0000   0.0000   0.3014
  15.000   2.1968   0.06382   0.05872  -0.1871  0.3595  1.0000  -3.8579   0.0000   0.0000   0.0000   0.3005
  15.250   2.2307   0.06243   0.05730  -0.1871  0.3545  1.0000  -4.0347   0.0000   0.0000   0.0000   0.2985
  15.500   2.1808   0.07013   0.06526  -0.1838  0.3478  1.0000  -3.9659   0.0000   0.0000   0.0000   0.2981
  15.750   2.1636   0.07462   0.06988  -0.1823  0.3414  1.0000  -3.9917   0.0000   0.0000   0.0000   0.2973
  16.000   2.1874   0.07411   0.06936  -0.1817  0.3358  1.0000  -4.1417   0.0000   0.0000   0.0000   0.2954
  16.250   2.1396   0.08274   0.07822  -0.1802  0.3282  1.0000  -4.0727   0.0000   0.0000   0.0000   0.2958
  16.500   2.1159   0.08865   0.08426  -0.1796  0.3210  1.0000  -4.0751   0.0000   0.0000   0.0000   0.2957
  16.750   2.1342   0.08879   0.08442  -0.1790  0.3149  1.0000  -4.2127   0.0000   0.0000   0.0000   0.2939
  17.000   2.1207   0.09342   0.08916  -0.1787  0.3074  1.0000  -4.2506   0.0000   0.0000   0.0000   0.2935
  17.250   2.0938   0.10015   0.09603  -0.1789  0.2991  1.0000  -4.2403   0.0000   0.0000   0.0000   0.2939
  17.500   2.0741   0.10597   0.10197  -0.1793  0.2907  1.0000  -4.2529   0.0000   0.0000   0.0000   0.2941
  17.750   2.0611   0.11090   0.10698  -0.1798  0.2822  1.0000  -4.2871   0.0000   0.0000   0.0000   0.2941
  18.000   2.0520   0.11527   0.11142  -0.1804  0.2735  1.0000  -4.3346   0.0000   0.0000   0.0000   0.2940
  18.250   2.0443   0.11945   0.11567  -0.1811  0.2643  1.0000  -4.4217   0.0000   0.0000   0.0000   0.2939
  18.500   2.0382   0.12341   0.11968  -0.1818  0.2547  1.0000  -4.5213   0.0000   0.0000   0.0000   0.2937
  18.750   2.0330   0.12724   0.12354  -0.1826  0.2447  1.0000  -4.6260   0.0000   0.0000   0.0000   0.2935
  19.000   2.0303   0.13063   0.12693  -0.1834  0.2342  1.0000  -4.7476   0.0000   0.0000   0.0000   0.2932
  19.250   2.0231   0.13480   0.13112  -0.1846  0.2232  1.0000  -4.8447   0.0000   0.0000   0.0000   0.2933
  19.500   2.0124   0.13955   0.13589  -0.1861  0.2117  1.0000  -4.9180   0.0000   0.0000   0.0000   0.2937
  19.750   2.0074   0.14332   0.13963  -0.1873  0.2005  1.0000  -5.0279   0.0000   0.0000   0.0000   0.2938
  20.000   2.0041   0.14675   0.14299  -0.1884  0.1897  1.0000  -5.1490   0.0000   0.0000   0.0000   0.2937
  20.250   1.9946   0.15131   0.14756  -0.1903  0.1789  1.0000  -5.2253   0.0000   0.0000   0.0000   0.2942
  20.500   1.9896   0.15504   0.15125  -0.1918  0.1689  1.0000  -5.3326   0.0000   0.0000   0.0000   0.2944
  20.750   1.9862   0.15845   0.15460  -0.1932  0.1596  1.0000  -5.4512   0.0000   0.0000   0.0000   0.2945
  21.000   1.9834   0.16174   0.15781  -0.1947  0.1509  1.0000  -5.5734   0.0000   0.0000   0.0000   0.2945
  21.250   1.9811   0.16488   0.16090  -0.1961  0.1427  1.0000  -5.6998   0.0000   0.0000   0.0000   0.2945
  21.500   1.9789   0.16806   0.16404  -0.1977  0.1351  1.0000  -5.8256   0.0000   0.0000   0.0000   0.2946
  21.750   1.9756   0.17147   0.16746  -0.1995  0.1279  1.0000  -5.9422   0.0000   0.0000   0.0000   0.2948
  22.000   1.9727   0.17481   0.17082  -0.2013  0.1213  1.0000  -6.0615   0.0000   0.0000   0.0000   0.2951
  22.250   1.9703   0.17803   0.17406  -0.2032  0.1151  1.0000  -6.1840   0.0000   0.0000   0.0000   0.2953
  22.500   1.9687   0.18113   0.17718  -0.2050  0.1091  1.0000  -6.3121   0.0000   0.0000   0.0000   0.2954
  22.750   1.9679   0.18404   0.18010  -0.2067  0.1036  1.0000  -6.4472   0.0000   0.0000   0.0000   0.2955
  23.000   1.9685   0.18662   0.18267  -0.2084  0.0985  1.0000  -6.5958   0.0000   0.0000   0.0000   0.2954
  23.250   1.9708   0.18886   0.18486  -0.2098  0.0937  1.0000  -6.7603   0.0000   0.0000   0.0000   0.2951
  23.500   1.9676   0.19226   0.18837  -0.2121  0.0890  1.0000  -6.8727   0.0000   0.0000   0.0000   0.2955
  23.750   1.9666   0.19521   0.19138  -0.2141  0.0847  1.0000  -7.0046   0.0000   0.0000   0.0000   0.2957
  24.000   1.9678   0.19762   0.19380  -0.2159  0.0807  1.0000  -7.1587   0.0000   0.0000   0.0000   0.2956
  24.250   1.9705   0.19973   0.19587  -0.2175  0.0767  1.0000  -7.3296   0.0000   0.0000   0.0000   0.2953
  24.500   1.9665   0.20330   0.19958  -0.2201  0.0730  1.0000  -7.4315   0.0000   0.0000   0.0000   0.2960
  24.750   1.9659   0.20607   0.20240  -0.2223  0.0695  1.0000  -7.5687   0.0000   0.0000   0.0000   0.2962
  25.000   1.9679   0.20827   0.20457  -0.2241  0.0661  1.0000  -7.7440   0.0000   0.0000   0.0000   0.2960


