xflr5 v6.59

 Calculated polar for: TKV2008

 1 1 Reynolds number fixed          Mach number fixed         

 xtrf =   1.000 (top)        1.000 (bottom)
 Mach =   0.000     Re =     0.160 e 6     Ncrit =   9.000

  alpha     CL        CD       CDp       Cm    Top Xtr Bot Xtr   Cpmin    Chinge    XCp    
 ------- -------- --------- --------- -------- ------- ------- -------- --------- ---------
 -25.000  -0.4606   0.26871   0.26381   0.0007  1.0000  0.0155  -1.3278   0.0000   0.0000   0.0000   0.2094
 -24.750  -0.4533   0.26658   0.26169  -0.0007  1.0000  0.0156  -1.3125   0.0000   0.0000   0.0000   0.2062
 -24.500  -0.4460   0.26450   0.25962  -0.0022  1.0000  0.0158  -1.3005   0.0000   0.0000   0.0000   0.2028
 -24.250  -0.4387   0.26241   0.25754  -0.0037  1.0000  0.0159  -1.2902   0.0000   0.0000   0.0000   0.1993
 -24.000  -0.4313   0.26031   0.25545  -0.0052  1.0000  0.0161  -1.2809   0.0000   0.0000   0.0000   0.1957
 -23.750  -0.4239   0.25819   0.25334  -0.0066  1.0000  0.0163  -1.2720   0.0000   0.0000   0.0000   0.1920
 -23.500  -0.4164   0.25605   0.25121  -0.0081  1.0000  0.0164  -1.2651   0.0000   0.0000   0.0000   0.1882
 -23.250  -0.4090   0.25391   0.24908  -0.0095  1.0000  0.0166  -1.2638   0.0000   0.0000   0.0000   0.1843
 -23.000  -0.4016   0.25175   0.24693  -0.0109  1.0000  0.0168  -1.2634   0.0000   0.0000   0.0000   0.1802
 -22.750  -0.3941   0.24959   0.24478  -0.0122  1.0000  0.0170  -1.2642   0.0000   0.0000   0.0000   0.1761
 -21.500  -0.3571   0.23867   0.23393  -0.0188  1.0000  0.0174  -1.2682   0.0000   0.0000   0.0000   0.1534
 -21.250  -0.3498   0.23645   0.23173  -0.0199  1.0000  0.0175  -1.2504   0.0000   0.0000   0.0000   0.1489
 -21.000  -0.3425   0.23431   0.22961  -0.0211  1.0000  0.0177  -1.2360   0.0000   0.0000   0.0000   0.1441
 -20.750  -0.3352   0.23216   0.22748  -0.0222  1.0000  0.0178  -1.2269   0.0000   0.0000   0.0000   0.1391
 -20.500  -0.3278   0.23000   0.22534  -0.0233  1.0000  0.0180  -1.2231   0.0000   0.0000   0.0000   0.1339
 -20.250  -0.3206   0.22783   0.22318  -0.0244  1.0000  0.0182  -1.2204   0.0000   0.0000   0.0000   0.1287
 -20.000  -0.3134   0.22564   0.22101  -0.0254  1.0000  0.0184  -1.2185   0.0000   0.0000   0.0000   0.1232
 -19.750  -0.3062   0.22345   0.21884  -0.0265  1.0000  0.0187  -1.2177   0.0000   0.0000   0.0000   0.1176
 -19.500  -0.2991   0.22126   0.21667  -0.0275  1.0000  0.0189  -1.2191   0.0000   0.0000   0.0000   0.1118
 -19.250  -0.2920   0.21908   0.21451  -0.0285  1.0000  0.0190  -1.2235   0.0000   0.0000   0.0000   0.1058
 -18.500  -0.2716   0.21253   0.20803  -0.0313  1.0000  0.0193  -1.2352   0.0000   0.0000   0.0000   0.0869
 -18.250  -0.2648   0.21029   0.20582  -0.0319  1.0000  0.0194  -1.2149   0.0000   0.0000   0.0000   0.0809
 -18.000  -0.2581   0.20813   0.20368  -0.0326  1.0000  0.0196  -1.2001   0.0000   0.0000   0.0000   0.0747
 -17.750  -0.2516   0.20599   0.20157  -0.0333  1.0000  0.0198  -1.1884   0.0000   0.0000   0.0000   0.0682
 -17.500  -0.2451   0.20386   0.19947  -0.0339  1.0000  0.0200  -1.1817   0.0000   0.0000   0.0000   0.0617
 -17.250  -0.2388   0.20173   0.19737  -0.0345  1.0000  0.0203  -1.1813   0.0000   0.0000   0.0000   0.0550
 -17.000  -0.2327   0.19961   0.19528  -0.0351  1.0000  0.0205  -1.1825   0.0000   0.0000   0.0000   0.0484
 -16.750  -0.2268   0.19749   0.19319  -0.0356  1.0000  0.0207  -1.1856   0.0000   0.0000   0.0000   0.0417
 -16.500  -0.2211   0.19542   0.19115  -0.0361  1.0000  0.0209  -1.1914   0.0000   0.0000   0.0000   0.0351
 -15.750  -0.2060   0.18934   0.18520  -0.0372  1.0000  0.0212  -1.2276   0.0000   0.0000   0.0000   0.0165
 -15.500  -0.2011   0.18724   0.18314  -0.0372  1.0000  0.0214  -1.2042   0.0000   0.0000   0.0000   0.0122
 -15.250  -0.1969   0.18532   0.18126  -0.0371  1.0000  0.0217  -1.1911   0.0000   0.0000   0.0000   0.0085
 -15.000  -0.1932   0.18349   0.17948  -0.0370  1.0000  0.0220  -1.1839   0.0000   0.0000   0.0000   0.0058
 -14.750  -0.1904   0.18175   0.17779  -0.0366  1.0000  0.0223  -1.1804   0.0000   0.0000   0.0000   0.0048
 -14.500  -0.1887   0.18015   0.17625  -0.0361  1.0000  0.0226  -1.1798   0.0000   0.0000   0.0000   0.0065
 -14.250  -0.1886   0.17876   0.17493  -0.0352  1.0000  0.0228  -1.1822   0.0000   0.0000   0.0000   0.0122
 -14.000  -0.1914   0.17777   0.17401  -0.0338  1.0000  0.0230  -1.1885   0.0000   0.0000   0.0000   0.0244
 -13.750  -0.1684   0.17388   0.17011  -0.0395  0.9971  0.0232  -1.1901   0.0000   0.0000   0.0000  -0.0407
 -13.500  -0.1450   0.16987   0.16610  -0.0453  0.9936  0.0234  -1.1944   0.0000   0.0000   0.0000  -0.1274
 -13.250  -0.1212   0.16586   0.16208  -0.0505  0.9908  0.0237  -1.1584   0.0000   0.0000   0.0000  -0.2449
 -13.000  -0.0983   0.16187   0.15808  -0.0556  0.9866  0.0241  -1.1401   0.0000   0.0000   0.0000  -0.4130
 -12.750  -0.0755   0.15790   0.15410  -0.0608  0.9825  0.0246  -1.1307   0.0000   0.0000   0.0000  -0.6811
 -12.500  -0.0523   0.15395   0.15014  -0.0662  0.9791  0.0251  -1.1301   0.0000   0.0000   0.0000  -1.1980
 -12.250  -0.0309   0.15006   0.14624  -0.0712  0.9738  0.0254  -1.1464   0.0000   0.0000   0.0000  -2.3610
 -12.000  -0.0099   0.14606   0.14223  -0.0758  0.9684  0.0256  -1.1400   0.0000   0.0000   0.0000  -8.4048
 -11.750   0.0114   0.14211   0.13828  -0.0800  0.9627  0.0261  -1.1061   0.0000   0.0000   0.0000   8.1157
 -11.500   0.0317   0.13832   0.13449  -0.0841  0.9560  0.0268  -1.0891   0.0000   0.0000   0.0000   3.2061
 -11.250   0.0504   0.13465   0.13082  -0.0880  0.9477  0.0275  -1.0897   0.0000   0.0000   0.0000   2.1830
 -10.750   0.0870   0.12735   0.12352  -0.0950  0.9299  0.0282  -1.0725   0.0000   0.0000   0.0000   1.4496
 -10.500   0.1054   0.12378   0.11995  -0.0982  0.9206  0.0288  -1.0483   0.0000   0.0000   0.0000   1.2698
 -10.250   0.1240   0.12024   0.11639  -0.1017  0.9114  0.0295  -1.0360   0.0000   0.0000   0.0000   1.1437
 -10.000   0.1444   0.11664   0.11277  -0.1060  0.9024  0.0301  -1.0574   0.0000   0.0000   0.0000   1.0471
  -9.750   0.1677   0.11268   0.10878  -0.1109  0.8940  0.0304  -1.0613   0.0000   0.0000   0.0000   0.9649
  -9.500   0.1958   0.10854   0.10458  -0.1164  0.8861  0.0311  -1.0260   0.0000   0.0000   0.0000   0.8904
  -9.250   0.2281   0.10425   0.10020  -0.1237  0.8784  0.0322  -1.0187   0.0000   0.0000   0.0000   0.8317
  -9.000   0.2652   0.09978   0.09563  -0.1331  0.8702  0.0328  -1.0459   0.0000   0.0000   0.0000   0.7867
  -8.750   0.3068   0.09502   0.09075  -0.1420  0.8598  0.0339  -0.9836   0.0000   0.0000   0.0000   0.7429
  -8.500   0.3462   0.09084   0.08642  -0.1515  0.8472  0.0352  -0.9864   0.0000   0.0000   0.0000   0.7148
  -8.250   0.3769   0.08728   0.08271  -0.1579  0.8316  0.0360  -0.9910   0.0000   0.0000   0.0000   0.6937
  -8.000   0.4012   0.08450   0.07977  -0.1623  0.8165  0.0374  -1.0073   0.0000   0.0000   0.0000   0.6775
  -7.750   0.4168   0.08244   0.07759  -0.1657  0.8026  0.0383  -1.0163   0.0000   0.0000   0.0000   0.6694
  -7.500   0.4334   0.08009   0.07514  -0.1669  0.7905  0.0393  -1.0302   0.0000   0.0000   0.0000   0.6555
  -7.250   0.4448   0.07829   0.07326  -0.1680  0.7793  0.0406  -1.0388   0.0000   0.0000   0.0000   0.6469
  -7.000   0.4511   0.07697   0.07189  -0.1693  0.7688  0.0413  -1.0418   0.0000   0.0000   0.0000   0.6436
  -6.750   0.4652   0.07473   0.06957  -0.1694  0.7600  0.0421  -1.0545   0.0000   0.0000   0.0000   0.6313
  -6.500   0.4765   0.07299   0.06776  -0.1701  0.7517  0.0433  -1.0640   0.0000   0.0000   0.0000   0.6231
  -6.250   0.4794   0.07178   0.06656  -0.1701  0.7427  0.0443  -1.0664   0.0000   0.0000   0.0000   0.6201
  -6.000   0.4894   0.06992   0.06466  -0.1699  0.7353  0.0450  -1.0761   0.0000   0.0000   0.0000   0.6115
  -5.750   0.4986   0.06833   0.06304  -0.1697  0.7283  0.0464  -1.0850   0.0000   0.0000   0.0000   0.6039
  -5.500   0.5001   0.06737   0.06209  -0.1693  0.7211  0.0476  -1.0866   0.0000   0.0000   0.0000   0.6013
  -5.250   0.5126   0.06549   0.06016  -0.1702  0.7152  0.0485  -1.0967   0.0000   0.0000   0.0000   0.5939
  -5.000   0.5207   0.06405   0.05875  -0.1698  0.7085  0.0500  -1.1043   0.0000   0.0000   0.0000   0.5872
  -4.750   0.5344   0.06238   0.05703  -0.1739  0.7030  0.0516  -1.1102   0.0000   0.0000   0.0000   0.5856
  -4.500   0.5441   0.06074   0.05542  -0.1722  0.6968  0.0531  -1.1210   0.0000   0.0000   0.0000   0.5758
  -4.250   0.5625   0.05882   0.05345  -0.1770  0.6915  0.0557  -1.1307   0.0000   0.0000   0.0000   0.5733
  -4.000   0.5746   0.05723   0.05187  -0.1761  0.6859  0.0578  -1.1433   0.0000   0.0000   0.0000   0.5642
  -3.750   0.5950   0.05513   0.04975  -0.1804  0.6804  0.0604  -1.1555   0.0000   0.0000   0.0000   0.5601
  -3.250   0.6361   0.05127   0.04584  -0.1857  0.6697  0.0659  -1.1843   0.0000   0.0000   0.0000   0.5475
  -3.000   0.6721   0.04865   0.04310  -0.1929  0.6655  0.0702  -1.2062   0.0000   0.0000   0.0000   0.5417
  -2.750   0.7034   0.04630   0.04074  -0.1991  0.6597  0.0752  -1.2239   0.0000   0.0000   0.0000   0.5371
  -2.500   0.7414   0.04381   0.03814  -0.2056  0.6551  0.0812  -1.2486   0.0000   0.0000   0.0000   0.5305
  -1.000   1.0893   0.02381   0.01557  -0.2615  0.6267  0.0639  -1.4693   0.0000   0.0000   0.0000   0.4899
  -0.750   1.1243   0.02294   0.01438  -0.2631  0.6216  0.0638  -1.4974   0.0000   0.0000   0.0000   0.4833
  -0.500   1.1605   0.02224   0.01341  -0.2647  0.6177  0.0654  -1.5291   0.0000   0.0000   0.0000   0.4769
  -0.250   1.1895   0.02193   0.01298  -0.2649  0.6129  0.0686  -1.5552   0.0000   0.0000   0.0000   0.4711
   0.000   1.2198   0.02162   0.01262  -0.2654  0.6084  0.0738  -1.5831   0.0000   0.0000   0.0000   0.4655
   0.250   1.2543   0.02133   0.01228  -0.2667  0.6049  0.0832  -1.6149   0.0000   0.0000   0.0000   0.4600
   0.500   1.2802   0.02130   0.01240  -0.2665  0.5998  0.0987  -1.6389   0.0000   0.0000   0.0000   0.4551
   0.750   1.3148   0.02101   0.01250  -0.2681  0.5956  0.2490  -1.6701   0.0000   0.0000   0.0000   0.4504
   1.000   1.3455   0.02116   0.01264  -0.2688  0.5921  0.3289  -1.7009   0.0000   0.0000   0.0000   0.4457
   1.250   1.3693   0.02137   0.01305  -0.2682  0.5868  0.3942  -1.7252   0.0000   0.0000   0.0000   0.4414
   1.500   1.4002   0.02131   0.01325  -0.2690  0.5830  0.5111  -1.7561   0.0000   0.0000   0.0000   0.4372
   1.750   1.4145   0.02086   0.01339  -0.2657  0.5797  1.0000  -1.7765   0.0000   0.0000   0.0000   0.4324
   2.000   1.4387   0.02130   0.01371  -0.2651  0.5749  1.0000  -1.8034   0.0000   0.0000   0.0000   0.4284
   2.250   1.4681   0.02159   0.01381  -0.2655  0.5713  1.0000  -1.8358   0.0000   0.0000   0.0000   0.4245
   2.500   1.4958   0.02196   0.01404  -0.2656  0.5677  1.0000  -1.8667   0.0000   0.0000   0.0000   0.4207
   2.750   1.5185   0.02241   0.01447  -0.2648  0.5629  1.0000  -1.8928   0.0000   0.0000   0.0000   0.4171
   3.000   1.5476   0.02268   0.01460  -0.2651  0.5594  1.0000  -1.9254   0.0000   0.0000   0.0000   0.4135
   3.250   1.5734   0.02310   0.01494  -0.2649  0.5557  1.0000  -1.9547   0.0000   0.0000   0.0000   0.4101
   3.500   1.5956   0.02358   0.01543  -0.2640  0.5511  1.0000  -1.9805   0.0000   0.0000   0.0000   0.4068
   3.750   1.6243   0.02387   0.01561  -0.2643  0.5478  1.0000  -2.0130   0.0000   0.0000   0.0000   0.4035
   4.000   1.6497   0.02431   0.01600  -0.2640  0.5443  1.0000  -2.0420   0.0000   0.0000   0.0000   0.4004
   4.250   1.6703   0.02483   0.01656  -0.2629  0.5397  1.0000  -2.0663   0.0000   0.0000   0.0000   0.3973
   4.500   1.6988   0.02511   0.01675  -0.2632  0.5364  1.0000  -2.0988   0.0000   0.0000   0.0000   0.3943
   4.750   1.7240   0.02555   0.01717  -0.2629  0.5329  1.0000  -2.1293   0.0000   0.0000   0.0000   0.3914
   5.000   1.7429   0.02613   0.01782  -0.2615  0.5284  1.0000  -2.1561   0.0000   0.0000   0.0000   0.3884
   5.250   1.7712   0.02640   0.01802  -0.2617  0.5251  1.0000  -2.1927   0.0000   0.0000   0.0000   0.3857
   5.500   1.7960   0.02686   0.01846  -0.2614  0.5217  1.0000  -2.2256   0.0000   0.0000   0.0000   0.3830
   5.750   1.8129   0.02752   0.01923  -0.2597  0.5172  1.0000  -2.2503   0.0000   0.0000   0.0000   0.3802
   6.000   1.8405   0.02783   0.01949  -0.2599  0.5140  1.0000  -2.2864   0.0000   0.0000   0.0000   0.3776
   6.250   1.8667   0.02824   0.01989  -0.2598  0.5109  1.0000  -2.3208   0.0000   0.0000   0.0000   0.3751
   6.500   1.8800   0.02905   0.02084  -0.2575  0.5063  1.0000  -2.3421   0.0000   0.0000   0.0000   0.3724
   6.750   1.9063   0.02941   0.02118  -0.2575  0.5032  1.0000  -2.3790   0.0000   0.0000   0.0000   0.3700
   7.000   1.9370   0.02969   0.02139  -0.2583  0.5005  1.0000  -2.4206   0.0000   0.0000   0.0000   0.3677
   7.250   1.9438   0.03072   0.02264  -0.2549  0.4957  1.0000  -2.4368   0.0000   0.0000   0.0000   0.3650
   7.500   1.9690   0.03106   0.02298  -0.2547  0.4923  1.0000  -2.4731   0.0000   0.0000   0.0000   0.3627
   7.750   2.0023   0.03123   0.02306  -0.2559  0.4897  1.0000  -2.5178   0.0000   0.0000   0.0000   0.3606
   8.250   2.0278   0.03283   0.02493  -0.2514  0.4815  1.0000  -2.5634   0.0000   0.0000   0.0000   0.3557
   8.500   2.0625   0.03291   0.02495  -0.2528  0.4788  1.0000  -2.6099   0.0000   0.0000   0.0000   0.3538
   8.750   2.0580   0.03433   0.02662  -0.2477  0.4738  1.0000  -2.6140   0.0000   0.0000   0.0000   0.3511
   9.000   2.0819   0.03472   0.02704  -0.2473  0.4706  1.0000  -2.6489   0.0000   0.0000   0.0000   0.3489
   9.250   2.1191   0.03477   0.02703  -0.2492  0.4682  1.0000  -2.6989   0.0000   0.0000   0.0000   0.3472
   9.500   2.1060   0.03655   0.02911  -0.2428  0.4634  1.0000  -2.6953   0.0000   0.0000   0.0000   0.3444
   9.750   2.1273   0.03701   0.02963  -0.2421  0.4601  1.0000  -2.7376   0.0000   0.0000   0.0000   0.3423
  10.000   2.1697   0.03681   0.02935  -0.2448  0.4575  1.0000  -2.8186   0.0000   0.0000   0.0000   0.3407
  10.250   2.1409   0.03898   0.03183  -0.2359  0.4525  1.0000  -2.8095   0.0000   0.0000   0.0000   0.3376
  10.500   2.1620   0.03944   0.03235  -0.2351  0.4492  1.0000  -2.8762   0.0000   0.0000   0.0000   0.3356
  10.750   2.2109   0.03919   0.03205  -0.2390  0.4469  1.0000  -2.9849   0.0000   0.0000   0.0000   0.3343
  11.000   2.1580   0.04228   0.03547  -0.2267  0.4419  1.0000  -2.9405   0.0000   0.0000   0.0000   0.3308
  11.250   2.1802   0.04265   0.03589  -0.2262  0.4386  1.0000  -3.0101   0.0000   0.0000   0.0000   0.3289
  11.500   2.2061   0.04284   0.03612  -0.2261  0.4351  1.0000  -3.0898   0.0000   0.0000   0.0000   0.3270
  11.750   2.1686   0.04583   0.03935  -0.2173  0.4299  1.0000  -3.0690   0.0000   0.0000   0.0000   0.3242
  12.000   2.2396   0.04324   0.03660  -0.2230  0.4256  1.0000  -3.2477   0.0000   0.0000   0.0000   0.3229
  12.250   2.1709   0.04821   0.04191  -0.2108  0.4201  1.0000  -3.1670   0.0000   0.0000   0.0000   0.3199
  12.500   2.2446   0.04504   0.03858  -0.2163  0.4157  1.0000  -3.3633   0.0000   0.0000   0.0000   0.3184
  12.750   2.1688   0.05122   0.04512  -0.2046  0.4101  1.0000  -3.2638   0.0000   0.0000   0.0000   0.3158
  13.000   2.2206   0.04921   0.04307  -0.2070  0.4063  1.0000  -3.4199   0.0000   0.0000   0.0000   0.3141
  13.250   2.1551   0.05580   0.04996  -0.1984  0.4005  1.0000  -3.3377   0.0000   0.0000   0.0000   0.3122
  13.500   2.1915   0.05469   0.04886  -0.1990  0.3967  1.0000  -3.4657   0.0000   0.0000   0.0000   0.3103
  13.750   2.1089   0.06420   0.05866  -0.1914  0.3898  1.0000  -3.3413   0.0000   0.0000   0.0000   0.3096
  14.000   2.1675   0.06058   0.05502  -0.1929  0.3866  1.0000  -3.5253   0.0000   0.0000   0.0000   0.3072
  14.250   1.9742   0.08534   0.08017  -0.1851  0.3730  1.0000  -3.1443   0.0000   0.0000   0.0000   0.3111
  14.500   2.0521   0.07780   0.07264  -0.1852  0.3725  1.0000  -3.3691   0.0000   0.0000   0.0000   0.3070
  14.750   2.0408   0.08175   0.07670  -0.1840  0.3664  1.0000  -3.3956   0.0000   0.0000   0.0000   0.3062
  15.000   2.1532   0.07048   0.06535  -0.1855  0.3654  1.0000  -3.7236   0.0000   0.0000   0.0000   0.3015
  15.250   2.0121   0.09094   0.08611  -0.1823  0.3537  1.0000  -3.4308   0.0000   0.0000   0.0000   0.3052
  15.500   1.9830   0.09785   0.09313  -0.1820  0.3458  1.0000  -3.4095   0.0000   0.0000   0.0000   0.3056
  15.750   2.0812   0.08663   0.08191  -0.1810  0.3457  1.0000  -3.7353   0.0000   0.0000   0.0000   0.3001
  16.500   2.0633   0.09694   0.09250  -0.1794  0.3259  1.0000  -3.9004   0.0000   0.0000   0.0000   0.2978
  16.750   2.0185   0.10631   0.10201  -0.1801  0.3167  1.0000  -3.8288   0.0000   0.0000   0.0000   0.2993
  17.000   1.9597   0.11838   0.11420  -0.1822  0.3055  1.0000  -3.7033   0.0000   0.0000   0.0000   0.3024
  17.500   1.8168   0.14881   0.14479  -0.1925  0.2725  1.0000  -3.3224   0.0000   0.0000   0.0000   0.3143
  17.750   2.0337   0.11516   0.11116  -0.1799  0.2880  1.0000  -4.1756   0.0000   0.0000   0.0000   0.2955
  18.000   1.9524   0.13126   0.12742  -0.1845  0.2741  1.0000  -3.9483   0.0000   0.0000   0.0000   0.3008
  18.250   2.0134   0.12416   0.12032  -0.1816  0.2700  1.0000  -4.2570   0.0000   0.0000   0.0000   0.2956
  18.500   2.0119   0.12732   0.12353  -0.1822  0.2609  1.0000  -4.3559   0.0000   0.0000   0.0000   0.2952
  18.750   2.0148   0.12978   0.12603  -0.1827  0.2515  1.0000  -4.5045   0.0000   0.0000   0.0000   0.2945
  19.000   2.0055   0.13427   0.13057  -0.1840  0.2411  1.0000  -4.5810   0.0000   0.0000   0.0000   0.2947
  19.250   1.9919   0.13951   0.13587  -0.1857  0.2301  1.0000  -4.6296   0.0000   0.0000   0.0000   0.2954
  19.500   1.9909   0.14263   0.13900  -0.1867  0.2193  1.0000  -4.7577   0.0000   0.0000   0.0000   0.2951
  19.750   1.9948   0.14485   0.14118  -0.1873  0.2086  1.0000  -4.9244   0.0000   0.0000   0.0000   0.2944
  20.000   1.9932   0.14803   0.14433  -0.1884  0.1978  1.0000  -5.0539   0.0000   0.0000   0.0000   0.2942
  20.250   1.9863   0.15214   0.14843  -0.1900  0.1871  1.0000  -5.1462   0.0000   0.0000   0.0000   0.2946
  20.500   1.9830   0.15559   0.15185  -0.1914  0.1769  1.0000  -5.2635   0.0000   0.0000   0.0000   0.2946
  20.750   1.9826   0.15845   0.15464  -0.1926  0.1673  1.0000  -5.4028   0.0000   0.0000   0.0000   0.2944
  21.000   1.9840   0.16097   0.15707  -0.1936  0.1582  1.0000  -5.5551   0.0000   0.0000   0.0000   0.2940
  21.250   1.9814   0.16418   0.16024  -0.1951  0.1496  1.0000  -5.6778   0.0000   0.0000   0.0000   0.2940
  21.500   1.9791   0.16735   0.16338  -0.1967  0.1416  1.0000  -5.8025   0.0000   0.0000   0.0000   0.2941
  21.750   1.9779   0.17031   0.16632  -0.1982  0.1341  1.0000  -5.9353   0.0000   0.0000   0.0000   0.2941
  22.000   1.9770   0.17322   0.16920  -0.1997  0.1270  1.0000  -6.0701   0.0000   0.0000   0.0000   0.2940
  22.250   1.9775   0.17581   0.17176  -0.2011  0.1204  1.0000  -6.2175   0.0000   0.0000   0.0000   0.2939
  22.500   1.9742   0.17923   0.17524  -0.2032  0.1143  1.0000  -6.3310   0.0000   0.0000   0.0000   0.2942
  22.750   1.9720   0.18237   0.17843  -0.2051  0.1085  1.0000  -6.4537   0.0000   0.0000   0.0000   0.2944
  23.000   1.9711   0.18529   0.18138  -0.2069  0.1031  1.0000  -6.5869   0.0000   0.0000   0.0000   0.2945
  23.250   1.9720   0.18779   0.18388  -0.2085  0.0980  1.0000  -6.7371   0.0000   0.0000   0.0000   0.2944
  23.500   1.9751   0.18983   0.18589  -0.2099  0.0932  1.0000  -6.9081   0.0000   0.0000   0.0000   0.2940
  23.750   1.9741   0.19271   0.18883  -0.2119  0.0886  1.0000  -7.0407   0.0000   0.0000   0.0000   0.2942
  24.000   1.9718   0.19589   0.19211  -0.2141  0.0844  1.0000  -7.1584   0.0000   0.0000   0.0000   0.2945
  24.250   1.9730   0.19830   0.19453  -0.2159  0.0804  1.0000  -7.3116   0.0000   0.0000   0.0000   0.2944
  24.500   1.9783   0.19978   0.19595  -0.2171  0.0765  1.0000  -7.5073   0.0000   0.0000   0.0000   0.2938
  24.750   1.9726   0.20364   0.19998  -0.2200  0.0730  1.0000  -7.5910   0.0000   0.0000   0.0000   0.2947
  25.000   1.9724   0.20631   0.20271  -0.2221  0.0696  1.0000  -7.7331   0.0000   0.0000   0.0000   0.2948


