xflr5 v6.59

 Calculated polar for: TKV2008

 1 1 Reynolds number fixed          Mach number fixed         

 xtrf =   1.000 (top)        1.000 (bottom)
 Mach =   0.000     Re =     0.420 e 6     Ncrit =   9.000

  alpha     CL        CD       CDp       Cm    Top Xtr Bot Xtr   Cpmin    Chinge    XCp    
 ------- -------- --------- --------- -------- ------- ------- -------- --------- ---------
 -25.000  -0.4701   0.26896   0.26596   0.0045  1.0000  0.0087  -1.3431   0.0000   0.0000   0.0000   0.2184
 -24.750  -0.4628   0.26670   0.26371   0.0029  1.0000  0.0087  -1.3405   0.0000   0.0000   0.0000   0.2152
 -23.500  -0.4261   0.25552   0.25255  -0.0045  1.0000  0.0088  -1.3616   0.0000   0.0000   0.0000   0.1979
 -23.250  -0.4189   0.25343   0.25048  -0.0059  1.0000  0.0089  -1.3392   0.0000   0.0000   0.0000   0.1946
 -23.000  -0.4116   0.25133   0.24838  -0.0072  1.0000  0.0090  -1.3240   0.0000   0.0000   0.0000   0.1910
 -22.750  -0.4042   0.24918   0.24624  -0.0086  1.0000  0.0091  -1.3131   0.0000   0.0000   0.0000   0.1873
 -22.500  -0.3969   0.24709   0.24416  -0.0099  1.0000  0.0091  -1.3042   0.0000   0.0000   0.0000   0.1835
 -22.250  -0.3895   0.24494   0.24201  -0.0112  1.0000  0.0092  -1.2966   0.0000   0.0000   0.0000   0.1795
 -22.000  -0.3821   0.24277   0.23985  -0.0125  1.0000  0.0094  -1.2898   0.0000   0.0000   0.0000   0.1755
 -21.750  -0.3747   0.24059   0.23768  -0.0137  1.0000  0.0095  -1.2833   0.0000   0.0000   0.0000   0.1714
 -21.500  -0.3674   0.23839   0.23549  -0.0150  1.0000  0.0096  -1.2770   0.0000   0.0000   0.0000   0.1671
 -21.250  -0.3601   0.23618   0.23329  -0.0161  1.0000  0.0097  -1.2708   0.0000   0.0000   0.0000   0.1628
 -21.000  -0.3527   0.23396   0.23108  -0.0173  1.0000  0.0098  -1.2646   0.0000   0.0000   0.0000   0.1583
 -20.750  -0.3454   0.23172   0.22886  -0.0185  1.0000  0.0099  -1.2587   0.0000   0.0000   0.0000   0.1538
 -20.500  -0.3382   0.22948   0.22662  -0.0196  1.0000  0.0101  -1.2536   0.0000   0.0000   0.0000   0.1491
 -20.250  -0.3309   0.22721   0.22437  -0.0206  1.0000  0.0102  -1.2575   0.0000   0.0000   0.0000   0.1442
 -20.000  -0.3237   0.22494   0.22210  -0.0217  1.0000  0.0102  -1.2672   0.0000   0.0000   0.0000   0.1393
 -19.750  -0.3165   0.22266   0.21984  -0.0227  1.0000  0.0103  -1.2785   0.0000   0.0000   0.0000   0.1342
 -19.500  -0.3095   0.22035   0.21753  -0.0237  1.0000  0.0103  -1.2924   0.0000   0.0000   0.0000   0.1289
 -18.750  -0.2890   0.21352   0.21075  -0.0267  1.0000  0.0104  -1.3418   0.0000   0.0000   0.0000   0.1123
 -18.500  -0.2823   0.21129   0.20854  -0.0273  1.0000  0.0104  -1.3079   0.0000   0.0000   0.0000   0.1075
 -18.250  -0.2757   0.20916   0.20642  -0.0280  1.0000  0.0105  -1.2833   0.0000   0.0000   0.0000   0.1023
 -18.000  -0.2692   0.20703   0.20432  -0.0287  1.0000  0.0106  -1.2647   0.0000   0.0000   0.0000   0.0970
 -17.750  -0.2627   0.20490   0.20219  -0.0294  1.0000  0.0107  -1.2497   0.0000   0.0000   0.0000   0.0915
 -17.500  -0.2564   0.20278   0.20009  -0.0300  1.0000  0.0108  -1.2371   0.0000   0.0000   0.0000   0.0860
 -17.250  -0.2503   0.20065   0.19799  -0.0306  1.0000  0.0109  -1.2259   0.0000   0.0000   0.0000   0.0805
 -17.000  -0.2443   0.19853   0.19589  -0.0311  1.0000  0.0110  -1.2181   0.0000   0.0000   0.0000   0.0751
 -16.750  -0.2385   0.19641   0.19378  -0.0315  1.0000  0.0112  -1.2184   0.0000   0.0000   0.0000   0.0699
 -16.500  -0.2330   0.19430   0.19170  -0.0319  1.0000  0.0113  -1.2197   0.0000   0.0000   0.0000   0.0649
 -16.250  -0.2278   0.19223   0.18966  -0.0322  1.0000  0.0115  -1.2227   0.0000   0.0000   0.0000   0.0601
 -16.000  -0.2226   0.19013   0.18758  -0.0325  1.0000  0.0117  -1.2280   0.0000   0.0000   0.0000   0.0552
 -15.750  -0.2024   0.18635   0.18379  -0.0373  0.9985  0.0118  -1.2309   0.0000   0.0000   0.0000   0.0122
 -15.500  -0.1823   0.18262   0.18005  -0.0420  0.9969  0.0119  -1.2417   0.0000   0.0000   0.0000  -0.0402
 -14.750  -0.1236   0.17133   0.16874  -0.0558  0.9917  0.0121  -1.2548   0.0000   0.0000   0.0000  -0.2893
 -13.750  -0.0465   0.15699   0.15438  -0.0726  0.9843  0.0127  -1.1364   0.0000   0.0000   0.0000  -1.5415
 -11.500   0.0866   0.12712   0.12454  -0.0969  0.9234  0.0142  -1.1218   0.0000   0.0000   0.0000   1.4833
 -11.250   0.1076   0.12331   0.12070  -0.1011  0.9102  0.0144  -1.1022   0.0000   0.0000   0.0000   1.2816
 -11.000   0.1381   0.11863   0.11596  -0.1082  0.8996  0.0148  -1.0830   0.0000   0.0000   0.0000   1.1056
 -10.750   0.1786   0.11308   0.11032  -0.1184  0.8904  0.0152  -1.0752   0.0000   0.0000   0.0000   0.9700
 -10.250   0.2914   0.10038   0.09727  -0.1482  0.8603  0.0158  -1.0408   0.0000   0.0000   0.0000   0.7968
 -10.000   0.3364   0.09583   0.09240  -0.1592  0.8253  0.0162  -1.0038   0.0000   0.0000   0.0000   0.7569
  -9.750   0.3517   0.09353   0.08986  -0.1615  0.7932  0.0167  -1.0021   0.0000   0.0000   0.0000   0.7408
  -9.500   0.3608   0.09158   0.08775  -0.1622  0.7709  0.0171  -1.0275   0.0000   0.0000   0.0000   0.7296
  -9.250   0.3676   0.08966   0.08572  -0.1628  0.7538  0.0173  -1.0974   0.0000   0.0000   0.0000   0.7218
  -9.000   0.3757   0.08771   0.08367  -0.1630  0.7399  0.0174  -1.0995   0.0000   0.0000   0.0000   0.7115
  -8.750   0.3851   0.08588   0.08177  -0.1630  0.7276  0.0175  -1.0510   0.0000   0.0000   0.0000   0.6994
  -8.500   0.3939   0.08411   0.07994  -0.1631  0.7168  0.0177  -1.0245   0.0000   0.0000   0.0000   0.6889
  -8.250   0.4026   0.08232   0.07811  -0.1633  0.7070  0.0180  -1.0139   0.0000   0.0000   0.0000   0.6792
  -8.000   0.4112   0.08051   0.07625  -0.1636  0.6984  0.0184  -1.0214   0.0000   0.0000   0.0000   0.6700
  -7.750   0.4196   0.07868   0.07436  -0.1638  0.6904  0.0188  -1.0291   0.0000   0.0000   0.0000   0.6616
  -7.500   0.4268   0.07678   0.07245  -0.1643  0.6829  0.0191  -1.0480   0.0000   0.0000   0.0000   0.6550
  -7.250   0.4326   0.07489   0.07052  -0.1649  0.6766  0.0192  -1.1112   0.0000   0.0000   0.0000   0.6502
  -7.000   0.4428   0.07311   0.06873  -0.1645  0.6697  0.0194  -1.0499   0.0000   0.0000   0.0000   0.6394
  -6.750   0.4518   0.07146   0.06705  -0.1644  0.6639  0.0197  -1.0588   0.0000   0.0000   0.0000   0.6309
  -6.500   0.4594   0.06980   0.06539  -0.1642  0.6577  0.0201  -1.0662   0.0000   0.0000   0.0000   0.6235
  -6.250   0.4666   0.06812   0.06367  -0.1642  0.6526  0.0206  -1.0733   0.0000   0.0000   0.0000   0.6168
  -6.000   0.4691   0.06640   0.06199  -0.1638  0.6471  0.0211  -1.0757   0.0000   0.0000   0.0000   0.6133
  -5.750   0.4709   0.06480   0.06037  -0.1630  0.6423  0.0213  -1.1223   0.0000   0.0000   0.0000   0.6094
  -5.500   0.4787   0.06334   0.05891  -0.1620  0.6373  0.0215  -1.0887   0.0000   0.0000   0.0000   0.6008
  -5.250   0.4870   0.06181   0.05738  -0.1619  0.6322  0.0219  -1.0972   0.0000   0.0000   0.0000   0.5938
  -5.000   0.4972   0.06008   0.05562  -0.1626  0.6278  0.0227  -1.1056   0.0000   0.0000   0.0000   0.5877
  -4.750   0.5064   0.05778   0.05335  -0.1651  0.6230  0.0234  -1.1640   0.0000   0.0000   0.0000   0.5859
  -4.500   0.5190   0.05623   0.05178  -0.1650  0.6186  0.0238  -1.1218   0.0000   0.0000   0.0000   0.5768
  -4.250   0.5336   0.05440   0.04994  -0.1665  0.6146  0.0244  -1.1329   0.0000   0.0000   0.0000   0.5701
  -4.000   0.5574   0.05099   0.04653  -0.1742  0.6103  0.0255  -1.2331   0.0000   0.0000   0.0000   0.5697
  -3.750   0.5714   0.04962   0.04512  -0.1734  0.6063  0.0258  -1.1568   0.0000   0.0000   0.0000   0.5599
  -3.500   0.5921   0.04768   0.04316  -0.1759  0.6022  0.0267  -1.1726   0.0000   0.0000   0.0000   0.5527
  -3.250   0.6265   0.04413   0.03959  -0.1842  0.5979  0.0280  -1.1906   0.0000   0.0000   0.0000   0.5488
  -3.000   0.6522   0.04229   0.03768  -0.1871  0.5940  0.0290  -1.2105   0.0000   0.0000   0.0000   0.5409
  -2.750   0.6968   0.03867   0.03399  -0.1966  0.5899  0.0307  -1.2359   0.0000   0.0000   0.0000   0.5355
  -2.500   0.7461   0.03513   0.03036  -0.2064  0.5855  0.0333  -1.2652   0.0000   0.0000   0.0000   0.5293
  -2.250   0.8321   0.02907   0.02397  -0.2258  0.5816  0.0384  -1.3118   0.0000   0.0000   0.0000   0.5233
  -1.250   1.0750   0.01575   0.00853  -0.2610  0.5650  0.0320  -1.4752   0.0000   0.0000   0.0000   0.4926
  -1.000   1.1089   0.01505   0.00758  -0.2622  0.5611  0.0318  -1.5042   0.0000   0.0000   0.0000   0.4858
  -0.500   1.1707   0.01442   0.00672  -0.2635  0.5536  0.0351  -1.5598   0.0000   0.0000   0.0000   0.4734
  -0.250   1.2004   0.01418   0.00648  -0.2639  0.5497  0.0371  -1.5880   0.0000   0.0000   0.0000   0.4677
   0.000   1.2309   0.01408   0.00631  -0.2645  0.5462  0.0405  -1.6177   0.0000   0.0000   0.0000   0.4623
   0.250   1.2594   0.01394   0.00620  -0.2647  0.5420  0.0441  -1.6459   0.0000   0.0000   0.0000   0.4571
   0.500   1.2884   0.01386   0.00613  -0.2650  0.5381  0.0505  -1.6747   0.0000   0.0000   0.0000   0.4521
   0.750   1.3189   0.01384   0.00608  -0.2656  0.5349  0.0654  -1.7045   0.0000   0.0000   0.0000   0.4474
   1.000   1.3489   0.01364   0.00624  -0.2663  0.5311  0.2167  -1.7339   0.0000   0.0000   0.0000   0.4430
   1.250   1.3757   0.01372   0.00636  -0.2662  0.5274  0.2548  -1.7616   0.0000   0.0000   0.0000   0.4385
   1.500   1.4034   0.01384   0.00647  -0.2663  0.5241  0.2868  -1.7905   0.0000   0.0000   0.0000   0.4343
   1.750   1.4302   0.01391   0.00663  -0.2662  0.5204  0.3326  -1.8190   0.0000   0.0000   0.0000   0.4302
   2.000   1.4581   0.01387   0.00684  -0.2665  0.5165  0.4432  -1.8501   0.0000   0.0000   0.0000   0.4264
   2.250   1.4840   0.01363   0.00720  -0.2662  0.5132  0.7889  -1.8809   0.0000   0.0000   0.0000   0.4225
   2.500   1.5053   0.01356   0.00724  -0.2647  0.5098  1.0000  -1.9078   0.0000   0.0000   0.0000   0.4185
   2.750   1.5309   0.01374   0.00737  -0.2643  0.5061  1.0000  -1.9382   0.0000   0.0000   0.0000   0.4149
   3.000   1.5572   0.01394   0.00749  -0.2641  0.5028  1.0000  -1.9692   0.0000   0.0000   0.0000   0.4114
   3.250   1.5835   0.01417   0.00765  -0.2639  0.4995  1.0000  -2.0003   0.0000   0.0000   0.0000   0.4079
   3.500   1.6080   0.01435   0.00782  -0.2634  0.4956  1.0000  -2.0299   0.0000   0.0000   0.0000   0.4046
   3.750   1.6332   0.01455   0.00797  -0.2629  0.4922  1.0000  -2.0603   0.0000   0.0000   0.0000   0.4013
   4.000   1.6591   0.01480   0.00815  -0.2627  0.4889  1.0000  -2.0913   0.0000   0.0000   0.0000   0.3982
   4.250   1.6824   0.01499   0.00836  -0.2619  0.4850  1.0000  -2.1201   0.0000   0.0000   0.0000   0.3951
   4.500   1.7068   0.01521   0.00854  -0.2614  0.4816  1.0000  -2.1499   0.0000   0.0000   0.0000   0.3920
   4.750   1.7326   0.01548   0.00874  -0.2612  0.4786  1.0000  -2.1810   0.0000   0.0000   0.0000   0.3891
   5.000   1.7549   0.01569   0.00900  -0.2602  0.4748  1.0000  -2.2088   0.0000   0.0000   0.0000   0.3862
   5.250   1.7782   0.01592   0.00922  -0.2595  0.4714  1.0000  -2.2395   0.0000   0.0000   0.0000   0.3834
   5.500   1.8035   0.01621   0.00944  -0.2592  0.4684  1.0000  -2.2742   0.0000   0.0000   0.0000   0.3807
   5.750   1.8247   0.01645   0.00973  -0.2581  0.4650  1.0000  -2.3050   0.0000   0.0000   0.0000   0.3779
   6.000   1.8463   0.01670   0.00999  -0.2571  0.4616  1.0000  -2.3363   0.0000   0.0000   0.0000   0.3752
   6.250   1.8698   0.01699   0.01025  -0.2565  0.4586  1.0000  -2.3695   0.0000   0.0000   0.0000   0.3726
   6.500   1.8910   0.01728   0.01056  -0.2554  0.4553  1.0000  -2.4005   0.0000   0.0000   0.0000   0.3700
   6.750   1.9101   0.01755   0.01087  -0.2539  0.4516  1.0000  -2.4297   0.0000   0.0000   0.0000   0.3674
   7.000   1.9313   0.01785   0.01116  -0.2529  0.4484  1.0000  -2.4629   0.0000   0.0000   0.0000   0.3649
   7.250   1.9516   0.01818   0.01151  -0.2517  0.4450  1.0000  -2.4953   0.0000   0.0000   0.0000   0.3624
   7.500   1.9693   0.01850   0.01188  -0.2500  0.4413  1.0000  -2.5252   0.0000   0.0000   0.0000   0.3599
   7.750   1.9892   0.01883   0.01221  -0.2488  0.4381  1.0000  -2.5574   0.0000   0.0000   0.0000   0.3575
   8.000   2.0097   0.01920   0.01260  -0.2477  0.4350  1.0000  -2.5900   0.0000   0.0000   0.0000   0.3551
   8.250   2.0266   0.01958   0.01305  -0.2460  0.4315  1.0000  -2.6190   0.0000   0.0000   0.0000   0.3527
   8.500   2.0455   0.01996   0.01346  -0.2447  0.4284  1.0000  -2.6501   0.0000   0.0000   0.0000   0.3504
   8.750   2.0674   0.02036   0.01384  -0.2439  0.4255  1.0000  -2.6841   0.0000   0.0000   0.0000   0.3482
   9.000   2.0812   0.02082   0.01441  -0.2417  0.4219  1.0000  -2.7100   0.0000   0.0000   0.0000   0.3458
   9.250   2.0979   0.02126   0.01489  -0.2400  0.4185  1.0000  -2.7390   0.0000   0.0000   0.0000   0.3436
   9.500   2.1194   0.02170   0.01530  -0.2393  0.4155  1.0000  -2.7728   0.0000   0.0000   0.0000   0.3415
   9.750   2.1315   0.02226   0.01598  -0.2369  0.4120  1.0000  -2.7967   0.0000   0.0000   0.0000   0.3392
  10.000   2.1470   0.02278   0.01656  -0.2351  0.4087  1.0000  -2.8283   0.0000   0.0000   0.0000   0.3370
  10.250   2.1662   0.02328   0.01703  -0.2341  0.4053  1.0000  -2.8867   0.0000   0.0000   0.0000   0.3350
  10.500   2.1735   0.02400   0.01790  -0.2310  0.4009  1.0000  -2.9340   0.0000   0.0000   0.0000   0.3326
  10.750   2.1846   0.02468   0.01861  -0.2286  0.3964  1.0000  -2.9874   0.0000   0.0000   0.0000   0.3304
  11.000   2.1931   0.02549   0.01951  -0.2259  0.3916  1.0000  -3.0370   0.0000   0.0000   0.0000   0.3282
  11.250   2.2017   0.02633   0.02041  -0.2234  0.3869  1.0000  -3.0870   0.0000   0.0000   0.0000   0.3261
  11.500   2.2111   0.02724   0.02137  -0.2210  0.3824  1.0000  -3.1410   0.0000   0.0000   0.0000   0.3240
  11.750   2.2193   0.02822   0.02245  -0.2186  0.3781  1.0000  -3.2025   0.0000   0.0000   0.0000   0.3219
  12.000   2.2308   0.02914   0.02337  -0.2167  0.3743  1.0000  -3.2743   0.0000   0.0000   0.0000   0.3200
  12.250   2.2353   0.03040   0.02478  -0.2141  0.3695  1.0000  -3.3349   0.0000   0.0000   0.0000   0.3180
  12.500   2.2434   0.03155   0.02595  -0.2119  0.3652  1.0000  -3.4032   0.0000   0.0000   0.0000   0.3161
  12.750   2.2480   0.03297   0.02750  -0.2096  0.3606  1.0000  -3.4645   0.0000   0.0000   0.0000   0.3142
  13.000   2.2541   0.03437   0.02895  -0.2074  0.3563  1.0000  -3.5309   0.0000   0.0000   0.0000   0.3124
  13.250   2.2582   0.03598   0.03067  -0.2053  0.3515  1.0000  -3.5975   0.0000   0.0000   0.0000   0.3106
  13.500   2.2611   0.03775   0.03250  -0.2031  0.3465  1.0000  -3.6620   0.0000   0.0000   0.0000   0.3089
  13.750   2.2630   0.03970   0.03456  -0.2011  0.3412  1.0000  -3.7242   0.0000   0.0000   0.0000   0.3072
  14.000   2.2645   0.04177   0.03667  -0.1991  0.3361  1.0000  -3.7859   0.0000   0.0000   0.0000   0.3056
  14.250   2.2647   0.04406   0.03910  -0.1973  0.3305  1.0000  -3.8533   0.0000   0.0000   0.0000   0.3041
  14.500   2.2649   0.04641   0.04148  -0.1955  0.3254  1.0000  -3.9318   0.0000   0.0000   0.0000   0.3027
  14.750   2.2631   0.04910   0.04430  -0.1939  0.3195  1.0000  -4.0049   0.0000   0.0000   0.0000   0.3013
  15.000   2.2610   0.05188   0.04716  -0.1923  0.3140  1.0000  -4.0773   0.0000   0.0000   0.0000   0.3000
  15.250   2.2571   0.05495   0.05031  -0.1908  0.3079  1.0000  -4.1450   0.0000   0.0000   0.0000   0.2988
  15.500   2.2528   0.05817   0.05363  -0.1895  0.3018  1.0000  -4.2152   0.0000   0.0000   0.0000   0.2976
  15.750   2.2466   0.06168   0.05721  -0.1882  0.2955  1.0000  -4.2828   0.0000   0.0000   0.0000   0.2965
  16.000   2.2385   0.06552   0.06113  -0.1870  0.2886  1.0000  -4.3447   0.0000   0.0000   0.0000   0.2956
  16.250   2.2296   0.06959   0.06530  -0.1861  0.2812  1.0000  -4.4036   0.0000   0.0000   0.0000   0.2947
  16.500   2.2192   0.07394   0.06973  -0.1852  0.2735  1.0000  -4.4575   0.0000   0.0000   0.0000   0.2940
  16.750   2.2076   0.07854   0.07440  -0.1845  0.2655  1.0000  -4.5070   0.0000   0.0000   0.0000   0.2933
  17.000   2.1945   0.08341   0.07933  -0.1839  0.2572  1.0000  -4.5747   0.0000   0.0000   0.0000   0.2928
  17.250   2.1803   0.08852   0.08450  -0.1835  0.2482  1.0000  -4.6486   0.0000   0.0000   0.0000   0.2923
  17.500   2.1647   0.09392   0.08995  -0.1833  0.2383  1.0000  -4.7182   0.0000   0.0000   0.0000   0.2921
  17.750   2.1475   0.09960   0.09566  -0.1833  0.2276  1.0000  -4.7777   0.0000   0.0000   0.0000   0.2920
  18.000   2.1287   0.10556   0.10163  -0.1836  0.2168  1.0000  -4.8256   0.0000   0.0000   0.0000   0.2921
  18.250   2.1109   0.11144   0.10753  -0.1842  0.2054  1.0000  -4.8755   0.0000   0.0000   0.0000   0.2923
  18.500   2.0928   0.11738   0.11347  -0.1850  0.1931  1.0000  -4.9206   0.0000   0.0000   0.0000   0.2926
  18.750   2.0746   0.12337   0.11945  -0.1860  0.1812  1.0000  -4.9610   0.0000   0.0000   0.0000   0.2931
  19.000   2.0578   0.12915   0.12521  -0.1873  0.1696  1.0000  -5.0065   0.0000   0.0000   0.0000   0.2937
  19.250   2.0418   0.13480   0.13084  -0.1887  0.1591  1.0000  -5.0531   0.0000   0.0000   0.0000   0.2943
  19.500   2.0281   0.14010   0.13612  -0.1903  0.1497  1.0000  -5.1109   0.0000   0.0000   0.0000   0.2950
  19.750   2.0170   0.14498   0.14099  -0.1919  0.1410  1.0000  -5.1836   0.0000   0.0000   0.0000   0.2955
  20.000   2.0077   0.14956   0.14557  -0.1935  0.1331  1.0000  -5.2660   0.0000   0.0000   0.0000   0.2959
  20.250   1.9999   0.15390   0.14992  -0.1951  0.1257  1.0000  -5.3570   0.0000   0.0000   0.0000   0.2963
  20.500   1.9928   0.15812   0.15414  -0.1968  0.1190  1.0000  -5.4513   0.0000   0.0000   0.0000   0.2967
  20.750   1.9863   0.16222   0.15825  -0.1986  0.1129  1.0000  -5.5492   0.0000   0.0000   0.0000   0.2972
  21.000   1.9813   0.16608   0.16212  -0.2004  0.1069  1.0000  -5.6566   0.0000   0.0000   0.0000   0.2975
  21.250   1.9774   0.16976   0.16582  -0.2022  0.1012  1.0000  -5.7714   0.0000   0.0000   0.0000   0.2978
  21.500   1.9740   0.17330   0.16940  -0.2040  0.0959  1.0000  -5.8904   0.0000   0.0000   0.0000   0.2980
  21.750   1.9706   0.17685   0.17297  -0.2059  0.0908  1.0000  -6.0083   0.0000   0.0000   0.0000   0.2984
  22.000   1.9673   0.18040   0.17654  -0.2078  0.0859  1.0000  -6.1270   0.0000   0.0000   0.0000   0.2987
  22.250   1.9640   0.18390   0.18005  -0.2099  0.0814  1.0000  -6.2459   0.0000   0.0000   0.0000   0.2990
  22.500   1.9610   0.18735   0.18352  -0.2119  0.0768  1.0000  -6.3664   0.0000   0.0000   0.0000   0.2994
  22.750   1.9588   0.19066   0.18687  -0.2140  0.0725  1.0000  -6.4931   0.0000   0.0000   0.0000   0.2997
  23.000   1.9572   0.19385   0.19009  -0.2160  0.0684  1.0000  -6.6243   0.0000   0.0000   0.0000   0.3000
  23.250   1.9550   0.19709   0.19337  -0.2182  0.0646  1.0000  -6.7509   0.0000   0.0000   0.0000   0.3003
  23.500   1.9525   0.20043   0.19672  -0.2204  0.0611  1.0000  -6.8753   0.0000   0.0000   0.0000   0.3008
  23.750   1.9504   0.20366   0.19998  -0.2227  0.0576  1.0000  -7.0020   0.0000   0.0000   0.0000   0.3012
  24.000   1.9491   0.20673   0.20309  -0.2249  0.0543  1.0000  -7.1400   0.0000   0.0000   0.0000   0.3015
  24.250   1.9478   0.20979   0.20619  -0.2272  0.0513  1.0000  -7.2827   0.0000   0.0000   0.0000   0.3018
  24.500   1.9461   0.21290   0.20934  -0.2295  0.0486  1.0000  -7.4214   0.0000   0.0000   0.0000   0.3022
  24.750   1.9444   0.21599   0.21246  -0.2319  0.0460  1.0000  -7.5597   0.0000   0.0000   0.0000   0.3026
  25.000   1.9437   0.21887   0.21540  -0.2343  0.0434  1.0000  -7.7083   0.0000   0.0000   0.0000   0.3029


