xflr5 v6.59

 Calculated polar for: TKV2008

 1 1 Reynolds number fixed          Mach number fixed         

 xtrf =   1.000 (top)        1.000 (bottom)
 Mach =   0.000     Re =     0.400 e 6     Ncrit =   9.000

  alpha     CL        CD       CDp       Cm    Top Xtr Bot Xtr   Cpmin    Chinge    XCp    
 ------- -------- --------- --------- -------- ------- ------- -------- --------- ---------
 -24.250  -0.4476   0.26205   0.25899  -0.0004  1.0000  0.0088  -1.3712   0.0000   0.0000   0.0000   0.2079
 -24.000  -0.4404   0.25998   0.25693  -0.0018  1.0000  0.0089  -1.3471   0.0000   0.0000   0.0000   0.2047
 -23.750  -0.4332   0.25789   0.25485  -0.0032  1.0000  0.0090  -1.3274   0.0000   0.0000   0.0000   0.2013
 -23.500  -0.4258   0.25582   0.25278  -0.0046  1.0000  0.0091  -1.3107   0.0000   0.0000   0.0000   0.1979
 -23.250  -0.4184   0.25371   0.25068  -0.0060  1.0000  0.0092  -1.3001   0.0000   0.0000   0.0000   0.1943
 -23.000  -0.4111   0.25157   0.24855  -0.0074  1.0000  0.0093  -1.2950   0.0000   0.0000   0.0000   0.1906
 -22.750  -0.4037   0.24941   0.24639  -0.0088  1.0000  0.0094  -1.2911   0.0000   0.0000   0.0000   0.1868
 -22.500  -0.3963   0.24723   0.24422  -0.0101  1.0000  0.0095  -1.2877   0.0000   0.0000   0.0000   0.1829
 -22.250  -0.3889   0.24504   0.24204  -0.0114  1.0000  0.0096  -1.2844   0.0000   0.0000   0.0000   0.1790
 -22.000  -0.3815   0.24284   0.23984  -0.0127  1.0000  0.0098  -1.2812   0.0000   0.0000   0.0000   0.1749
 -21.750  -0.3741   0.24062   0.23764  -0.0139  1.0000  0.0099  -1.2781   0.0000   0.0000   0.0000   0.1707
 -21.500  -0.3668   0.23839   0.23542  -0.0151  1.0000  0.0100  -1.2753   0.0000   0.0000   0.0000   0.1664
 -21.250  -0.3594   0.23616   0.23319  -0.0163  1.0000  0.0101  -1.2731   0.0000   0.0000   0.0000   0.1621
 -21.000  -0.3521   0.23387   0.23092  -0.0175  1.0000  0.0102  -1.2718   0.0000   0.0000   0.0000   0.1575
 -20.750  -0.3447   0.23162   0.22868  -0.0187  1.0000  0.0103  -1.2721   0.0000   0.0000   0.0000   0.1529
 -19.500  -0.3091   0.22020   0.21732  -0.0241  1.0000  0.0104  -1.3291   0.0000   0.0000   0.0000   0.1276
 -19.250  -0.3022   0.21802   0.21515  -0.0249  1.0000  0.0105  -1.3019   0.0000   0.0000   0.0000   0.1228
 -19.000  -0.2954   0.21588   0.21302  -0.0257  1.0000  0.0105  -1.2825   0.0000   0.0000   0.0000   0.1178
 -18.750  -0.2885   0.21373   0.21090  -0.0266  1.0000  0.0106  -1.2678   0.0000   0.0000   0.0000   0.1125
 -18.500  -0.2817   0.21157   0.20875  -0.0274  1.0000  0.0107  -1.2560   0.0000   0.0000   0.0000   0.1071
 -18.250  -0.2750   0.20941   0.20661  -0.0282  1.0000  0.0108  -1.2461   0.0000   0.0000   0.0000   0.1016
 -18.000  -0.2685   0.20725   0.20446  -0.0289  1.0000  0.0110  -1.2375   0.0000   0.0000   0.0000   0.0961
 -17.750  -0.2620   0.20508   0.20231  -0.0296  1.0000  0.0111  -1.2298   0.0000   0.0000   0.0000   0.0905
 -17.500  -0.2557   0.20291   0.20016  -0.0302  1.0000  0.0112  -1.2226   0.0000   0.0000   0.0000   0.0848
 -17.250  -0.2496   0.20074   0.19801  -0.0308  1.0000  0.0114  -1.2160   0.0000   0.0000   0.0000   0.0793
 -17.000  -0.2436   0.19858   0.19587  -0.0313  1.0000  0.0115  -1.2128   0.0000   0.0000   0.0000   0.0738
 -16.750  -0.2378   0.19643   0.19374  -0.0317  1.0000  0.0117  -1.2194   0.0000   0.0000   0.0000   0.0684
 -16.500  -0.2323   0.19427   0.19161  -0.0321  1.0000  0.0118  -1.2303   0.0000   0.0000   0.0000   0.0632
 -16.250  -0.2270   0.19213   0.18948  -0.0325  1.0000  0.0119  -1.2458   0.0000   0.0000   0.0000   0.0582
 -15.250  -0.1695   0.17957   0.17695  -0.0448  0.9961  0.0121  -1.2685   0.0000   0.0000   0.0000  -0.0779
 -15.000  -0.1502   0.17595   0.17333  -0.0491  0.9940  0.0122  -1.2301   0.0000   0.0000   0.0000  -0.1484
 -14.750  -0.1301   0.17237   0.16974  -0.0536  0.9922  0.0124  -1.2023   0.0000   0.0000   0.0000  -0.2446
 -14.500  -0.1095   0.16873   0.16608  -0.0583  0.9909  0.0126  -1.1803   0.0000   0.0000   0.0000  -0.3812
 -12.750   0.0219   0.14284   0.14017  -0.0871  0.9742  0.0138  -1.1928   0.0000   0.0000   0.0000   4.7211
 -12.500   0.0430   0.13912   0.13645  -0.0915  0.9725  0.0139  -1.1509   0.0000   0.0000   0.0000   2.6238
 -12.250   0.0579   0.13586   0.13318  -0.0940  0.9669  0.0141  -1.1292   0.0000   0.0000   0.0000   2.0544
 -10.500   0.2136   0.10835   0.10545  -0.1272  0.8815  0.0157  -1.0717   0.0000   0.0000   0.0000   0.8938
 -10.250   0.2726   0.10214   0.09905  -0.1424  0.8661  0.0162  -1.0196   0.0000   0.0000   0.0000   0.8122
 -10.000   0.3277   0.09657   0.09319  -0.1567  0.8380  0.0169  -1.0079   0.0000   0.0000   0.0000   0.7624
  -9.750   0.3486   0.09362   0.08997  -0.1615  0.8037  0.0173  -1.0856   0.0000   0.0000   0.0000   0.7453
  -9.500   0.3593   0.09152   0.08770  -0.1624  0.7791  0.0174  -1.0780   0.0000   0.0000   0.0000   0.7322
  -9.250   0.3689   0.08969   0.08573  -0.1625  0.7607  0.0176  -1.0374   0.0000   0.0000   0.0000   0.7194
  -9.000   0.3777   0.08791   0.08386  -0.1627  0.7455  0.0178  -1.0167   0.0000   0.0000   0.0000   0.7082
  -8.750   0.3864   0.08611   0.08198  -0.1629  0.7329  0.0181  -1.0057   0.0000   0.0000   0.0000   0.6978
  -8.500   0.3949   0.08428   0.08009  -0.1632  0.7219  0.0184  -1.0067   0.0000   0.0000   0.0000   0.6880
  -8.250   0.4034   0.08242   0.07816  -0.1635  0.7121  0.0188  -1.0139   0.0000   0.0000   0.0000   0.6789
  -8.000   0.4109   0.08053   0.07621  -0.1640  0.7031  0.0191  -1.0454   0.0000   0.0000   0.0000   0.6715
  -7.750   0.4166   0.07866   0.07433  -0.1647  0.6949  0.0192  -1.1159   0.0000   0.0000   0.0000   0.6666
  -7.500   0.4273   0.07678   0.07241  -0.1644  0.6874  0.0194  -1.0450   0.0000   0.0000   0.0000   0.6549
  -7.250   0.4364   0.07509   0.07068  -0.1644  0.6802  0.0197  -1.0441   0.0000   0.0000   0.0000   0.6458
  -7.000   0.4450   0.07338   0.06895  -0.1645  0.6737  0.0201  -1.0522   0.0000   0.0000   0.0000   0.6376
  -6.750   0.4529   0.07164   0.06719  -0.1646  0.6675  0.0205  -1.0595   0.0000   0.0000   0.0000   0.6302
  -6.500   0.4592   0.06985   0.06539  -0.1647  0.6617  0.0211  -1.0643   0.0000   0.0000   0.0000   0.6247
  -6.250   0.4620   0.06808   0.06362  -0.1647  0.6560  0.0213  -1.1016   0.0000   0.0000   0.0000   0.6216
  -6.000   0.4718   0.06643   0.06195  -0.1641  0.6508  0.0215  -1.0779   0.0000   0.0000   0.0000   0.6118
  -5.750   0.4777   0.06497   0.06050  -0.1632  0.6454  0.0219  -1.0855   0.0000   0.0000   0.0000   0.6048
  -5.500   0.4830   0.06354   0.05902  -0.1625  0.6409  0.0223  -1.0919   0.0000   0.0000   0.0000   0.5989
  -5.250   0.4884   0.06185   0.05738  -0.1626  0.6357  0.0231  -1.0965   0.0000   0.0000   0.0000   0.5945
  -5.000   0.4972   0.05990   0.05541  -0.1637  0.6310  0.0235  -1.1098   0.0000   0.0000   0.0000   0.5900
  -4.750   0.5090   0.05832   0.05383  -0.1640  0.6264  0.0240  -1.1141   0.0000   0.0000   0.0000   0.5819
  -4.500   0.5207   0.05652   0.05204  -0.1650  0.6216  0.0248  -1.1231   0.0000   0.0000   0.0000   0.5758
  -4.250   0.5396   0.05365   0.04913  -0.1707  0.6178  0.0256  -1.1855   0.0000   0.0000   0.0000   0.5744
  -4.000   0.5530   0.05214   0.04762  -0.1703  0.6135  0.0259  -1.1440   0.0000   0.0000   0.0000   0.5651
  -3.750   0.5708   0.05021   0.04569  -0.1723  0.6091  0.0267  -1.1579   0.0000   0.0000   0.0000   0.5584
  -3.500   0.6024   0.04686   0.04226  -0.1802  0.6053  0.0280  -1.1743   0.0000   0.0000   0.0000   0.5548
  -3.250   0.6218   0.04519   0.04060  -0.1815  0.6010  0.0287  -1.1908   0.0000   0.0000   0.0000   0.5468
  -2.250   0.8140   0.03090   0.02587  -0.2206  0.5842  0.0386  -1.3038   0.0000   0.0000   0.0000   0.5229
  -2.000   0.9128   0.02448   0.01880  -0.2416  0.5803  0.0478  -1.3605   0.0000   0.0000   0.0000   0.5160
  -1.750   0.9470   0.02315   0.01744  -0.2442  0.5759  0.0512  -1.3890   0.0000   0.0000   0.0000   0.5086
  -1.250   1.0769   0.01598   0.00857  -0.2614  0.5681  0.0325  -1.4756   0.0000   0.0000   0.0000   0.4925
  -1.000   1.1096   0.01532   0.00771  -0.2624  0.5638  0.0326  -1.5038   0.0000   0.0000   0.0000   0.4858
  -0.750   1.1402   0.01495   0.00729  -0.2630  0.5600  0.0341  -1.5316   0.0000   0.0000   0.0000   0.4795
  -0.500   1.1715   0.01469   0.00691  -0.2638  0.5565  0.0361  -1.5598   0.0000   0.0000   0.0000   0.4735
   0.000   1.2302   0.01430   0.00648  -0.2644  0.5485  0.0415  -1.6164   0.0000   0.0000   0.0000   0.4623
   0.250   1.2605   0.01420   0.00637  -0.2650  0.5449  0.0454  -1.6460   0.0000   0.0000   0.0000   0.4572
   0.500   1.2889   0.01411   0.00631  -0.2652  0.5407  0.0520  -1.6741   0.0000   0.0000   0.0000   0.4522
   0.750   1.3185   0.01404   0.00625  -0.2656  0.5371  0.0680  -1.7033   0.0000   0.0000   0.0000   0.4474
   1.000   1.3503   0.01390   0.00641  -0.2667  0.5339  0.2226  -1.7342   0.0000   0.0000   0.0000   0.4430
   1.250   1.3764   0.01397   0.00655  -0.2664  0.5300  0.2599  -1.7611   0.0000   0.0000   0.0000   0.4386
   1.500   1.4034   0.01406   0.00666  -0.2664  0.5264  0.2923  -1.7896   0.0000   0.0000   0.0000   0.4344
   1.750   1.4323   0.01418   0.00680  -0.2667  0.5231  0.3441  -1.8199   0.0000   0.0000   0.0000   0.4303
   2.000   1.4594   0.01408   0.00707  -0.2669  0.5190  0.4856  -1.8501   0.0000   0.0000   0.0000   0.4265
   2.250   1.4825   0.01379   0.00739  -0.2659  0.5154  0.8358  -1.8788   0.0000   0.0000   0.0000   0.4225
   2.500   1.5066   0.01384   0.00740  -0.2650  0.5124  1.0000  -1.9081   0.0000   0.0000   0.0000   0.4186
   2.750   1.5319   0.01402   0.00755  -0.2646  0.5087  1.0000  -1.9380   0.0000   0.0000   0.0000   0.4150
   3.000   1.5576   0.01421   0.00769  -0.2643  0.5050  1.0000  -1.9685   0.0000   0.0000   0.0000   0.4114
   3.250   1.5843   0.01443   0.00782  -0.2641  0.5018  1.0000  -2.0000   0.0000   0.0000   0.0000   0.4080
   3.500   1.6094   0.01464   0.00800  -0.2637  0.4982  1.0000  -2.0300   0.0000   0.0000   0.0000   0.4047
   3.750   1.6340   0.01484   0.00818  -0.2632  0.4945  1.0000  -2.0598   0.0000   0.0000   0.0000   0.4014
   4.000   1.6597   0.01506   0.00833  -0.2629  0.4912  1.0000  -2.0906   0.0000   0.0000   0.0000   0.3983
   4.250   1.6843   0.01529   0.00855  -0.2624  0.4876  1.0000  -2.1205   0.0000   0.0000   0.0000   0.3952
   4.500   1.7079   0.01550   0.00876  -0.2617  0.4839  1.0000  -2.1495   0.0000   0.0000   0.0000   0.3921
   4.750   1.7327   0.01574   0.00895  -0.2612  0.4807  1.0000  -2.1798   0.0000   0.0000   0.0000   0.3892
   5.000   1.7574   0.01600   0.00919  -0.2608  0.4774  1.0000  -2.2098   0.0000   0.0000   0.0000   0.3863
   5.250   1.7798   0.01623   0.00944  -0.2599  0.4737  1.0000  -2.2397   0.0000   0.0000   0.0000   0.3835
   5.500   1.8034   0.01648   0.00967  -0.2593  0.4704  1.0000  -2.2729   0.0000   0.0000   0.0000   0.3807
   5.750   1.8285   0.01677   0.00992  -0.2590  0.4675  1.0000  -2.3073   0.0000   0.0000   0.0000   0.3781
   6.000   1.8493   0.01703   0.01023  -0.2578  0.4639  1.0000  -2.3377   0.0000   0.0000   0.0000   0.3754
   6.250   1.8713   0.01729   0.01050  -0.2569  0.4606  1.0000  -2.3695   0.0000   0.0000   0.0000   0.3727
   6.500   1.8964   0.01760   0.01075  -0.2566  0.4577  1.0000  -2.4042   0.0000   0.0000   0.0000   0.3703
   6.750   1.9141   0.01788   0.01111  -0.2548  0.4540  1.0000  -2.4320   0.0000   0.0000   0.0000   0.3676
   7.000   1.9336   0.01817   0.01142  -0.2535  0.4505  1.0000  -2.4637   0.0000   0.0000   0.0000   0.3650
   7.250   1.9565   0.01849   0.01170  -0.2528  0.4474  1.0000  -2.4986   0.0000   0.0000   0.0000   0.3626
   7.500   1.9735   0.01882   0.01211  -0.2510  0.4438  1.0000  -2.5278   0.0000   0.0000   0.0000   0.3601
   7.750   1.9916   0.01915   0.01247  -0.2494  0.4402  1.0000  -2.5581   0.0000   0.0000   0.0000   0.3576
   8.000   2.0131   0.01950   0.01280  -0.2485  0.4372  1.0000  -2.5919   0.0000   0.0000   0.0000   0.3553
   8.250   2.0310   0.01989   0.01326  -0.2469  0.4339  1.0000  -2.6218   0.0000   0.0000   0.0000   0.3529
   8.500   2.0482   0.02029   0.01371  -0.2453  0.4305  1.0000  -2.6511   0.0000   0.0000   0.0000   0.3506
   8.750   2.0678   0.02067   0.01411  -0.2441  0.4275  1.0000  -2.6829   0.0000   0.0000   0.0000   0.3483
   9.000   2.0866   0.02111   0.01458  -0.2428  0.4243  1.0000  -2.7138   0.0000   0.0000   0.0000   0.3461
   9.250   2.1008   0.02159   0.01514  -0.2407  0.4206  1.0000  -2.7401   0.0000   0.0000   0.0000   0.3437
   9.500   2.1184   0.02204   0.01562  -0.2392  0.4174  1.0000  -2.7700   0.0000   0.0000   0.0000   0.3415
   9.750   2.1371   0.02252   0.01613  -0.2380  0.4143  1.0000  -2.8008   0.0000   0.0000   0.0000   0.3394
  10.000   2.1501   0.02309   0.01680  -0.2358  0.4109  1.0000  -2.8311   0.0000   0.0000   0.0000   0.3372
  10.250   2.1655   0.02363   0.01738  -0.2340  0.4074  1.0000  -2.8844   0.0000   0.0000   0.0000   0.3350
  10.500   2.1794   0.02423   0.01802  -0.2321  0.4035  1.0000  -2.9416   0.0000   0.0000   0.0000   0.3329
  10.750   2.1868   0.02498   0.01887  -0.2291  0.3987  1.0000  -2.9894   0.0000   0.0000   0.0000   0.3306
  11.000   2.1990   0.02567   0.01957  -0.2269  0.3942  1.0000  -3.0448   0.0000   0.0000   0.0000   0.3284
  11.250   2.2037   0.02662   0.02064  -0.2237  0.3892  1.0000  -3.0888   0.0000   0.0000   0.0000   0.3262
  11.500   2.2161   0.02739   0.02140  -0.2218  0.3849  1.0000  -3.1490   0.0000   0.0000   0.0000   0.3241
  11.750   2.2210   0.02848   0.02264  -0.2189  0.3804  1.0000  -3.2048   0.0000   0.0000   0.0000   0.3220
  12.000   2.2306   0.02945   0.02366  -0.2167  0.3765  1.0000  -3.2727   0.0000   0.0000   0.0000   0.3200
  12.250   2.2377   0.03058   0.02489  -0.2144  0.3721  1.0000  -3.3387   0.0000   0.0000   0.0000   0.3180
  12.500   2.2429   0.03187   0.02626  -0.2119  0.3674  1.0000  -3.4010   0.0000   0.0000   0.0000   0.3161
  12.750   2.2500   0.03313   0.02757  -0.2098  0.3632  1.0000  -3.4677   0.0000   0.0000   0.0000   0.3142
  13.000   2.2537   0.03465   0.02922  -0.2074  0.3585  1.0000  -3.5289   0.0000   0.0000   0.0000   0.3124
  13.250   2.2604   0.03606   0.03065  -0.2054  0.3542  1.0000  -3.6015   0.0000   0.0000   0.0000   0.3106
  13.500   2.2609   0.03799   0.03272  -0.2031  0.3489  1.0000  -3.6603   0.0000   0.0000   0.0000   0.3089
  13.750   2.2640   0.03980   0.03458  -0.2011  0.3440  1.0000  -3.7255   0.0000   0.0000   0.0000   0.3072
  14.000   2.2635   0.04202   0.03692  -0.1990  0.3384  1.0000  -3.7826   0.0000   0.0000   0.0000   0.3056
  14.250   2.2643   0.04422   0.03919  -0.1971  0.3333  1.0000  -3.8513   0.0000   0.0000   0.0000   0.3041
  14.500   2.2633   0.04669   0.04176  -0.1953  0.3277  1.0000  -3.9263   0.0000   0.0000   0.0000   0.3026
  14.750   2.2619   0.04930   0.04447  -0.1936  0.3222  1.0000  -4.0004   0.0000   0.0000   0.0000   0.3013
  15.000   2.2596   0.05207   0.04729  -0.1920  0.3167  1.0000  -4.0724   0.0000   0.0000   0.0000   0.2999
  15.250   2.2554   0.05518   0.05053  -0.1906  0.3104  1.0000  -4.1390   0.0000   0.0000   0.0000   0.2987
  15.500   2.2510   0.05838   0.05380  -0.1892  0.3046  1.0000  -4.2077   0.0000   0.0000   0.0000   0.2975
  15.750   2.2447   0.06188   0.05738  -0.1879  0.2982  1.0000  -4.2752   0.0000   0.0000   0.0000   0.2965
  16.000   2.2370   0.06570   0.06132  -0.1868  0.2913  1.0000  -4.3378   0.0000   0.0000   0.0000   0.2955
  16.250   2.2282   0.06973   0.06543  -0.1858  0.2842  1.0000  -4.3970   0.0000   0.0000   0.0000   0.2946
  16.500   2.2175   0.07408   0.06984  -0.1849  0.2768  1.0000  -4.4501   0.0000   0.0000   0.0000   0.2939
  16.750   2.2056   0.07870   0.07452  -0.1841  0.2689  1.0000  -4.4985   0.0000   0.0000   0.0000   0.2932
  17.000   2.1924   0.08358   0.07947  -0.1836  0.2605  1.0000  -4.5624   0.0000   0.0000   0.0000   0.2927
  17.250   2.1785   0.08865   0.08461  -0.1832  0.2517  1.0000  -4.6373   0.0000   0.0000   0.0000   0.2923
  17.500   2.1632   0.09399   0.09000  -0.1830  0.2423  1.0000  -4.7073   0.0000   0.0000   0.0000   0.2920
  17.750   2.1472   0.09951   0.09558  -0.1831  0.2318  1.0000  -4.7731   0.0000   0.0000   0.0000   0.2919
  18.000   2.1302   0.10524   0.10133  -0.1834  0.2208  1.0000  -4.8305   0.0000   0.0000   0.0000   0.2919
  18.250   2.1117   0.11118   0.10729  -0.1839  0.2095  1.0000  -4.8771   0.0000   0.0000   0.0000   0.2921
  18.500   2.0939   0.11708   0.11319  -0.1847  0.1976  1.0000  -4.9236   0.0000   0.0000   0.0000   0.2925
  18.750   2.0765   0.12294   0.11904  -0.1857  0.1854  1.0000  -4.9693   0.0000   0.0000   0.0000   0.2929
  19.250   2.0434   0.13440   0.13046  -0.1884  0.1629  1.0000  -5.0601   0.0000   0.0000   0.0000   0.2941
  19.500   2.0296   0.13970   0.13575  -0.1900  0.1530  1.0000  -5.1176   0.0000   0.0000   0.0000   0.2947
  19.750   2.0175   0.14474   0.14077  -0.1916  0.1441  1.0000  -5.1836   0.0000   0.0000   0.0000   0.2953
  20.000   2.0074   0.14945   0.14546  -0.1933  0.1361  1.0000  -5.2604   0.0000   0.0000   0.0000   0.2958
  20.250   1.9993   0.15383   0.14984  -0.1949  0.1285  1.0000  -5.3494   0.0000   0.0000   0.0000   0.2963
  20.500   1.9923   0.15804   0.15406  -0.1967  0.1215  1.0000  -5.4439   0.0000   0.0000   0.0000   0.2967
  20.750   1.9864   0.16204   0.15808  -0.1984  0.1151  1.0000  -5.5457   0.0000   0.0000   0.0000   0.2970
  21.000   1.9816   0.16586   0.16192  -0.2002  0.1090  1.0000  -5.6546   0.0000   0.0000   0.0000   0.2974
  21.250   1.9772   0.16959   0.16566  -0.2020  0.1034  1.0000  -5.7662   0.0000   0.0000   0.0000   0.2977
  21.500   1.9731   0.17327   0.16936  -0.2038  0.0981  1.0000  -5.8793   0.0000   0.0000   0.0000   0.2980
  21.750   1.9690   0.17694   0.17304  -0.2058  0.0931  1.0000  -5.9919   0.0000   0.0000   0.0000   0.2984
  22.000   1.9656   0.18048   0.17660  -0.2078  0.0881  1.0000  -6.1095   0.0000   0.0000   0.0000   0.2987
  22.250   1.9633   0.18384   0.17999  -0.2097  0.0832  1.0000  -6.2351   0.0000   0.0000   0.0000   0.2990
  22.500   1.9609   0.18715   0.18335  -0.2117  0.0786  1.0000  -6.3602   0.0000   0.0000   0.0000   0.2993
  22.750   1.9584   0.19055   0.18676  -0.2138  0.0742  1.0000  -6.4843   0.0000   0.0000   0.0000   0.2997
  23.000   1.9558   0.19389   0.19012  -0.2159  0.0703  1.0000  -6.6075   0.0000   0.0000   0.0000   0.3000
  23.250   1.9528   0.19730   0.19354  -0.2182  0.0665  1.0000  -6.7271   0.0000   0.0000   0.0000   0.3005
  23.500   1.9515   0.20042   0.19671  -0.2203  0.0626  1.0000  -6.8607   0.0000   0.0000   0.0000   0.3008
  23.750   1.9501   0.20353   0.19987  -0.2225  0.0590  1.0000  -6.9935   0.0000   0.0000   0.0000   0.3011
  24.000   1.9481   0.20671   0.20308  -0.2248  0.0558  1.0000  -7.1233   0.0000   0.0000   0.0000   0.3015
  24.250   1.9461   0.20991   0.20629  -0.2272  0.0528  1.0000  -7.2580   0.0000   0.0000   0.0000   0.3019
  24.500   1.9445   0.21299   0.20941  -0.2295  0.0499  1.0000  -7.3974   0.0000   0.0000   0.0000   0.3023
  24.750   1.9437   0.21591   0.21240  -0.2318  0.0471  1.0000  -7.5442   0.0000   0.0000   0.0000   0.3026
  25.000   1.9424   0.21895   0.21548  -0.2342  0.0446  1.0000  -7.6857   0.0000   0.0000   0.0000   0.3030


