xflr5 v6.59

 Calculated polar for: TKV2008

 1 1 Reynolds number fixed          Mach number fixed         

 xtrf =   1.000 (top)        1.000 (bottom)
 Mach =   0.000     Re =     1.000 e 6     Ncrit =   9.000

  alpha     CL        CD       CDp       Cm    Top Xtr Bot Xtr   Cpmin    Chinge    XCp    
 ------- -------- --------- --------- -------- ------- ------- -------- --------- ---------
 -25.000  -0.4798   0.26932   0.26739   0.0078  1.0000  0.0052  -1.3726   0.0000   0.0000   0.0000   0.2262
 -24.750  -0.4725   0.26716   0.26524   0.0062  1.0000  0.0053  -1.3612   0.0000   0.0000   0.0000   0.2233
 -21.500  -0.3774   0.23748   0.23561  -0.0117  1.0000  0.0059  -1.4483   0.0000   0.0000   0.0000   0.1777
 -21.250  -0.3703   0.23539   0.23353  -0.0129  1.0000  0.0060  -1.4129   0.0000   0.0000   0.0000   0.1740
 -21.000  -0.3631   0.23330   0.23144  -0.0140  1.0000  0.0060  -1.3832   0.0000   0.0000   0.0000   0.1701
 -20.750  -0.3558   0.23120   0.22936  -0.0151  1.0000  0.0060  -1.3581   0.0000   0.0000   0.0000   0.1660
 -20.500  -0.3486   0.22905   0.22721  -0.0162  1.0000  0.0061  -1.3363   0.0000   0.0000   0.0000   0.1619
 -20.250  -0.3414   0.22692   0.22510  -0.0173  1.0000  0.0062  -1.3191   0.0000   0.0000   0.0000   0.1576
 -20.000  -0.3342   0.22478   0.22296  -0.0183  1.0000  0.0062  -1.3104   0.0000   0.0000   0.0000   0.1532
 -19.750  -0.3272   0.22261   0.22080  -0.0193  1.0000  0.0063  -1.3033   0.0000   0.0000   0.0000   0.1488
 -19.500  -0.3201   0.22042   0.21862  -0.0203  1.0000  0.0064  -1.2973   0.0000   0.0000   0.0000   0.1442
 -19.250  -0.3132   0.21822   0.21643  -0.0212  1.0000  0.0065  -1.2922   0.0000   0.0000   0.0000   0.1397
 -19.000  -0.3032   0.21564   0.21385  -0.0231  0.9998  0.0066  -1.2859   0.0000   0.0000   0.0000   0.1303
 -18.750  -0.2849   0.21214   0.21034  -0.0276  0.9989  0.0068  -1.2752   0.0000   0.0000   0.0000   0.1072
 -18.500  -0.2672   0.20872   0.20692  -0.0318  0.9980  0.0070  -1.2676   0.0000   0.0000   0.0000   0.0820
 -16.500  -0.1279   0.18028   0.17843  -0.0649  0.9909  0.0073  -1.3815   0.0000   0.0000   0.0000  -0.3580
 -16.250  -0.1149   0.17722   0.17538  -0.0671  0.9889  0.0074  -1.3314   0.0000   0.0000   0.0000  -0.4446
 -16.000  -0.0990   0.17406   0.17222  -0.0704  0.9877  0.0074  -1.2885   0.0000   0.0000   0.0000  -0.5892
 -10.500   0.3225   0.09795   0.09460  -0.1604  0.7142  0.0103  -1.1900   0.0000   0.0000   0.0000   0.7845
 -10.250   0.3289   0.09566   0.09226  -0.1612  0.7026  0.0104  -1.2936   0.0000   0.0000   0.0000   0.7757
 -10.000   0.3392   0.09366   0.09021  -0.1613  0.6914  0.0104  -1.2183   0.0000   0.0000   0.0000   0.7593
  -9.750   0.3489   0.09180   0.08831  -0.1617  0.6814  0.0105  -1.1668   0.0000   0.0000   0.0000   0.7454
  -9.500   0.3583   0.08996   0.08642  -0.1621  0.6725  0.0106  -1.1318   0.0000   0.0000   0.0000   0.7327
  -9.250   0.3675   0.08811   0.08454  -0.1625  0.6645  0.0107  -1.1084   0.0000   0.0000   0.0000   0.7210
  -9.000   0.3768   0.08619   0.08260  -0.1629  0.6568  0.0109  -1.0932   0.0000   0.0000   0.0000   0.7098
  -8.750   0.3858   0.08430   0.08067  -0.1633  0.6500  0.0111  -1.0841   0.0000   0.0000   0.0000   0.6994
  -8.500   0.3947   0.08239   0.07874  -0.1637  0.6434  0.0113  -1.0799   0.0000   0.0000   0.0000   0.6895
  -8.250   0.4035   0.08045   0.07678  -0.1641  0.6375  0.0115  -1.0822   0.0000   0.0000   0.0000   0.6801
  -8.000   0.4114   0.07834   0.07466  -0.1645  0.6317  0.0119  -1.1321   0.0000   0.0000   0.0000   0.6722
  -7.750   0.4164   0.07607   0.07238  -0.1652  0.6267  0.0120  -1.2580   0.0000   0.0000   0.0000   0.6681
  -7.500   0.4222   0.07398   0.07029  -0.1656  0.6214  0.0120  -1.3172   0.0000   0.0000   0.0000   0.6626
  -7.250   0.4326   0.07230   0.06859  -0.1652  0.6162  0.0121  -1.2258   0.0000   0.0000   0.0000   0.6510
  -7.000   0.4419   0.07067   0.06697  -0.1651  0.6111  0.0122  -1.1649   0.0000   0.0000   0.0000   0.6415
  -6.750   0.4497   0.06912   0.06539  -0.1648  0.6062  0.0123  -1.1233   0.0000   0.0000   0.0000   0.6333
  -6.500   0.4570   0.06753   0.06381  -0.1645  0.6018  0.0124  -1.0939   0.0000   0.0000   0.0000   0.6257
  -6.250   0.4631   0.06596   0.06225  -0.1639  0.5974  0.0126  -1.0748   0.0000   0.0000   0.0000   0.6188
  -6.000   0.4671   0.06447   0.06075  -0.1628  0.5934  0.0128  -1.0804   0.0000   0.0000   0.0000   0.6127
  -5.750   0.4689   0.06301   0.05932  -0.1614  0.5896  0.0131  -1.0849   0.0000   0.0000   0.0000   0.6073
  -5.500   0.4684   0.06150   0.05782  -0.1596  0.5857  0.0135  -1.1307   0.0000   0.0000   0.0000   0.6030
  -5.250   0.4685   0.05863   0.05497  -0.1610  0.5823  0.0137  -1.4206   0.0000   0.0000   0.0000   0.6055
  -5.000   0.4778   0.05729   0.05364  -0.1600  0.5786  0.0138  -1.3207   0.0000   0.0000   0.0000   0.5957
  -4.750   0.4856   0.05589   0.05225  -0.1594  0.5747  0.0139  -1.2616   0.0000   0.0000   0.0000   0.5881
  -4.500   0.4938   0.05438   0.05073  -0.1592  0.5709  0.0141  -1.2272   0.0000   0.0000   0.0000   0.5814
  -4.250   0.5045   0.05262   0.04898  -0.1599  0.5675  0.0144  -1.2114   0.0000   0.0000   0.0000   0.5750
  -4.000   0.5183   0.05051   0.04688  -0.1616  0.5639  0.0149  -1.2203   0.0000   0.0000   0.0000   0.5690
  -2.500   0.9383   0.01305   0.00724  -0.2602  0.5415  0.0173  -2.3805   0.0000   0.0000   0.0000   0.5298
  -2.250   0.9743   0.01219   0.00616  -0.2623  0.5376  0.0175  -2.2507   0.0000   0.0000   0.0000   0.5211
  -2.000   1.0048   0.01189   0.00579  -0.2630  0.5341  0.0178  -2.0809   0.0000   0.0000   0.0000   0.5130
  -1.750   1.0366   0.01152   0.00533  -0.2639  0.5304  0.0183  -1.9381   0.0000   0.0000   0.0000   0.5053
  -1.500   1.0670   0.01129   0.00494  -0.2644  0.5266  0.0192  -1.8093   0.0000   0.0000   0.0000   0.4980
  -1.250   1.0967   0.01108   0.00469  -0.2649  0.5230  0.0199  -1.6480   0.0000   0.0000   0.0000   0.4913
  -1.000   1.1268   0.01089   0.00446  -0.2653  0.5195  0.0209  -1.5227   0.0000   0.0000   0.0000   0.4847
  -0.750   1.1564   0.01074   0.00429  -0.2657  0.5158  0.0219  -1.5504   0.0000   0.0000   0.0000   0.4785
  -0.500   1.1845   0.01072   0.00419  -0.2658  0.5125  0.0232  -1.5772   0.0000   0.0000   0.0000   0.4726
  -0.250   1.2138   0.01062   0.00411  -0.2661  0.5092  0.0249  -1.6048   0.0000   0.0000   0.0000   0.4670
   0.000   1.2423   0.01058   0.00405  -0.2663  0.5057  0.0270  -1.6335   0.0000   0.0000   0.0000   0.4616
   0.250   1.2700   0.01058   0.00402  -0.2663  0.5023  0.0295  -1.6618   0.0000   0.0000   0.0000   0.4565
   0.500   1.2979   0.01058   0.00400  -0.2663  0.4989  0.0329  -1.6902   0.0000   0.0000   0.0000   0.4515
   0.750   1.3259   0.01056   0.00399  -0.2664  0.4951  0.0387  -1.7189   0.0000   0.0000   0.0000   0.4468
   1.000   1.3541   0.01050   0.00403  -0.2666  0.4915  0.0864  -1.7476   0.0000   0.0000   0.0000   0.4422
   1.250   1.3821   0.01046   0.00416  -0.2668  0.4882  0.1853  -1.7764   0.0000   0.0000   0.0000   0.4379
   1.500   1.4087   0.01051   0.00425  -0.2666  0.4848  0.2164  -1.8043   0.0000   0.0000   0.0000   0.4337
   1.750   1.4344   0.01060   0.00435  -0.2662  0.4814  0.2392  -1.8321   0.0000   0.0000   0.0000   0.4296
   2.000   1.4598   0.01070   0.00446  -0.2658  0.4781  0.2624  -1.8616   0.0000   0.0000   0.0000   0.4256
   2.250   1.4862   0.01074   0.00457  -0.2656  0.4746  0.3007  -1.8928   0.0000   0.0000   0.0000   0.4217
   2.500   1.5122   0.01076   0.00473  -0.2654  0.4709  0.3834  -1.9238   0.0000   0.0000   0.0000   0.4181
   2.750   1.5390   0.01069   0.00503  -0.2654  0.4675  0.6204  -1.9555   0.0000   0.0000   0.0000   0.4146
   3.000   1.5643   0.01062   0.00525  -0.2650  0.4639  0.7873  -1.9862   0.0000   0.0000   0.0000   0.4111
   3.500   1.6100   0.01075   0.00551  -0.2631  0.4573  1.0000  -2.0436   0.0000   0.0000   0.0000   0.4041
   3.750   1.6355   0.01086   0.00562  -0.2627  0.4540  1.0000  -2.0746   0.0000   0.0000   0.0000   0.4009
   4.000   1.6599   0.01102   0.00576  -0.2621  0.4505  1.0000  -2.1046   0.0000   0.0000   0.0000   0.3977
   4.250   1.6831   0.01124   0.00593  -0.2613  0.4473  1.0000  -2.1338   0.0000   0.0000   0.0000   0.3946
   4.500   1.7078   0.01139   0.00608  -0.2608  0.4443  1.0000  -2.1641   0.0000   0.0000   0.0000   0.3915
   4.750   1.7318   0.01156   0.00624  -0.2602  0.4410  1.0000  -2.1940   0.0000   0.0000   0.0000   0.3886
   5.000   1.7546   0.01178   0.00643  -0.2593  0.4379  1.0000  -2.2229   0.0000   0.0000   0.0000   0.3857
   5.250   1.7778   0.01198   0.00662  -0.2586  0.4349  1.0000  -2.2522   0.0000   0.0000   0.0000   0.3828
   5.500   1.8015   0.01216   0.00680  -0.2579  0.4314  1.0000  -2.2850   0.0000   0.0000   0.0000   0.3800
   5.750   1.8235   0.01240   0.00702  -0.2570  0.4278  1.0000  -2.3171   0.0000   0.0000   0.0000   0.3773
   6.000   1.8456   0.01264   0.00725  -0.2560  0.4244  1.0000  -2.3492   0.0000   0.0000   0.0000   0.3746
   6.250   1.8686   0.01283   0.00746  -0.2553  0.4209  1.0000  -2.3823   0.0000   0.0000   0.0000   0.3720
   6.500   1.8901   0.01309   0.00771  -0.2543  0.4176  1.0000  -2.4141   0.0000   0.0000   0.0000   0.3694
   6.750   1.9111   0.01338   0.00799  -0.2532  0.4146  1.0000  -2.4455   0.0000   0.0000   0.0000   0.3669
   7.000   1.9336   0.01359   0.00822  -0.2524  0.4115  1.0000  -2.4802   0.0000   0.0000   0.0000   0.3644
   7.250   1.9545   0.01387   0.00851  -0.2513  0.4082  1.0000  -2.5135   0.0000   0.0000   0.0000   0.3619
   7.500   1.9736   0.01424   0.00886  -0.2499  0.4051  1.0000  -2.5451   0.0000   0.0000   0.0000   0.3595
   7.750   1.9958   0.01445   0.00912  -0.2491  0.4019  1.0000  -2.5797   0.0000   0.0000   0.0000   0.3571
   8.000   2.0163   0.01475   0.00943  -0.2480  0.3986  1.0000  -2.6127   0.0000   0.0000   0.0000   0.3548
   8.250   2.0348   0.01513   0.00981  -0.2466  0.3956  1.0000  -2.6439   0.0000   0.0000   0.0000   0.3525
   8.500   2.0553   0.01543   0.01015  -0.2456  0.3926  1.0000  -2.6768   0.0000   0.0000   0.0000   0.3502
   8.750   2.0751   0.01576   0.01051  -0.2444  0.3893  1.0000  -2.7093   0.0000   0.0000   0.0000   0.3480
   9.000   2.0919   0.01622   0.01096  -0.2427  0.3855  1.0000  -2.7389   0.0000   0.0000   0.0000   0.3457
   9.250   2.1113   0.01656   0.01134  -0.2416  0.3811  1.0000  -2.7711   0.0000   0.0000   0.0000   0.3435
   9.500   2.1281   0.01703   0.01182  -0.2399  0.3765  1.0000  -2.8007   0.0000   0.0000   0.0000   0.3413
   9.750   2.1453   0.01748   0.01230  -0.2384  0.3725  1.0000  -2.8307   0.0000   0.0000   0.0000   0.3391
  10.000   2.1627   0.01793   0.01278  -0.2370  0.3682  1.0000  -2.8608   0.0000   0.0000   0.0000   0.3370
  10.250   2.1771   0.01853   0.01339  -0.2351  0.3640  1.0000  -2.9145   0.0000   0.0000   0.0000   0.3349
  10.500   2.1940   0.01902   0.01392  -0.2337  0.3593  1.0000  -2.9762   0.0000   0.0000   0.0000   0.3328
  10.750   2.2061   0.01977   0.01467  -0.2315  0.3547  1.0000  -3.0311   0.0000   0.0000   0.0000   0.3306
  11.000   2.2227   0.02029   0.01525  -0.2301  0.3500  1.0000  -3.0930   0.0000   0.0000   0.0000   0.3286
  11.250   2.2346   0.02109   0.01606  -0.2280  0.3457  1.0000  -3.1481   0.0000   0.0000   0.0000   0.3266
  11.500   2.2494   0.02174   0.01677  -0.2264  0.3414  1.0000  -3.2180   0.0000   0.0000   0.0000   0.3246
  11.750   2.2605   0.02262   0.01767  -0.2243  0.3367  1.0000  -3.2899   0.0000   0.0000   0.0000   0.3226
  12.000   2.2726   0.02347   0.01857  -0.2225  0.3314  1.0000  -3.3658   0.0000   0.0000   0.0000   0.3207
  12.250   2.2808   0.02460   0.01971  -0.2202  0.3260  1.0000  -3.4346   0.0000   0.0000   0.0000   0.3187
  12.500   2.2923   0.02555   0.02072  -0.2184  0.3209  1.0000  -3.5102   0.0000   0.0000   0.0000   0.3168
  12.750   2.2984   0.02690   0.02209  -0.2160  0.3159  1.0000  -3.5795   0.0000   0.0000   0.0000   0.3149
  13.000   2.3088   0.02801   0.02326  -0.2143  0.3106  1.0000  -3.6606   0.0000   0.0000   0.0000   0.3131
  13.250   2.3141   0.02954   0.02482  -0.2121  0.3055  1.0000  -3.7310   0.0000   0.0000   0.0000   0.3113
  13.500   2.3208   0.03103   0.02636  -0.2102  0.2999  1.0000  -3.8048   0.0000   0.0000   0.0000   0.3096
  13.750   2.3252   0.03277   0.02815  -0.2081  0.2942  1.0000  -3.8778   0.0000   0.0000   0.0000   0.3079
  14.250   2.3291   0.03690   0.03235  -0.2041  0.2809  1.0000  -4.0472   0.0000   0.0000   0.0000   0.3046
  14.500   2.3287   0.03931   0.03480  -0.2021  0.2737  1.0000  -4.1259   0.0000   0.0000   0.0000   0.3031
  14.750   2.3250   0.04213   0.03765  -0.2000  0.2658  1.0000  -4.2030   0.0000   0.0000   0.0000   0.3017
  15.000   2.3183   0.04538   0.04093  -0.1980  0.2571  1.0000  -4.2709   0.0000   0.0000   0.0000   0.3003
  15.250   2.3090   0.04903   0.04460  -0.1960  0.2479  1.0000  -4.3308   0.0000   0.0000   0.0000   0.2991
  15.500   2.2971   0.05311   0.04870  -0.1941  0.2374  1.0000  -4.3824   0.0000   0.0000   0.0000   0.2980
  15.750   2.2808   0.05784   0.05345  -0.1923  0.2264  1.0000  -4.4198   0.0000   0.0000   0.0000   0.2971
  16.000   2.2618   0.06307   0.05868  -0.1907  0.2156  1.0000  -4.4483   0.0000   0.0000   0.0000   0.2963
  16.250   2.2435   0.06838   0.06401  -0.1893  0.2045  1.0000  -4.4779   0.0000   0.0000   0.0000   0.2956
  16.500   2.2220   0.07427   0.06992  -0.1881  0.1927  1.0000  -4.4962   0.0000   0.0000   0.0000   0.2951
  16.750   2.1997   0.08043   0.07608  -0.1872  0.1808  1.0000  -4.5107   0.0000   0.0000   0.0000   0.2948
  17.000   2.1771   0.08677   0.08242  -0.1866  0.1690  1.0000  -4.5228   0.0000   0.0000   0.0000   0.2946
  17.250   2.1545   0.09324   0.08891  -0.1863  0.1586  1.0000  -4.5480   0.0000   0.0000   0.0000   0.2946
  17.500   2.1353   0.09932   0.09499  -0.1863  0.1488  1.0000  -4.5966   0.0000   0.0000   0.0000   0.2946
  17.750   2.1181   0.10516   0.10086  -0.1865  0.1400  1.0000  -4.6530   0.0000   0.0000   0.0000   0.2946
  18.000   2.1037   0.11060   0.10631  -0.1868  0.1320  1.0000  -4.7232   0.0000   0.0000   0.0000   0.2946
  18.250   2.0911   0.11580   0.11153  -0.1874  0.1243  1.0000  -4.8007   0.0000   0.0000   0.0000   0.2946
  18.500   2.0797   0.12081   0.11656  -0.1881  0.1174  1.0000  -4.8838   0.0000   0.0000   0.0000   0.2947
  18.750   2.0700   0.12556   0.12133  -0.1889  0.1110  1.0000  -4.9749   0.0000   0.0000   0.0000   0.2947
  19.000   2.0612   0.13016   0.12594  -0.1899  0.1047  1.0000  -5.0700   0.0000   0.0000   0.0000   0.2948
  19.250   2.0531   0.13464   0.13044  -0.1909  0.0992  1.0000  -5.1682   0.0000   0.0000   0.0000   0.2949
  19.500   2.0463   0.13889   0.13471  -0.1920  0.0940  1.0000  -5.2734   0.0000   0.0000   0.0000   0.2950
  19.750   2.0416   0.14278   0.13864  -0.1932  0.0888  1.0000  -5.3925   0.0000   0.0000   0.0000   0.2949
  20.000   2.0373   0.14662   0.14249  -0.1944  0.0841  1.0000  -5.5134   0.0000   0.0000   0.0000   0.2949
  20.250   2.0335   0.15034   0.14624  -0.1956  0.0795  1.0000  -5.6374   0.0000   0.0000   0.0000   0.2949
  20.500   2.0288   0.15419   0.15011  -0.1971  0.0750  1.0000  -5.7548   0.0000   0.0000   0.0000   0.2950
  20.750   2.0239   0.15804   0.15397  -0.1986  0.0707  1.0000  -5.8713   0.0000   0.0000   0.0000   0.2952
  21.000   2.0202   0.16169   0.15764  -0.2001  0.0663  1.0000  -5.9952   0.0000   0.0000   0.0000   0.2953
  21.250   2.0166   0.16529   0.16126  -0.2017  0.0620  1.0000  -6.1202   0.0000   0.0000   0.0000   0.2955
  21.500   2.0135   0.16881   0.16479  -0.2033  0.0579  1.0000  -6.2483   0.0000   0.0000   0.0000   0.2956
  21.750   2.0109   0.17222   0.16823  -0.2050  0.0543  1.0000  -6.3809   0.0000   0.0000   0.0000   0.2957
  22.000   2.0090   0.17549   0.17152  -0.2066  0.0510  1.0000  -6.5188   0.0000   0.0000   0.0000   0.2958
  22.250   2.0069   0.17880   0.17486  -0.2084  0.0480  1.0000  -6.6549   0.0000   0.0000   0.0000   0.2959
  22.500   2.0051   0.18201   0.17809  -0.2102  0.0451  1.0000  -6.7945   0.0000   0.0000   0.0000   0.2960
  22.750   2.0029   0.18527   0.18137  -0.2120  0.0425  1.0000  -6.9377   0.0000   0.0000   0.0000   0.2962
  23.000   2.0018   0.18835   0.18450  -0.2138  0.0400  1.0000  -7.0917   0.0000   0.0000   0.0000   0.2963
  23.250   2.0008   0.19136   0.18754  -0.2157  0.0377  1.0000  -7.2482   0.0000   0.0000   0.0000   0.2964
  23.500   1.9988   0.19455   0.19076  -0.2177  0.0355  1.0000  -7.3951   0.0000   0.0000   0.0000   0.2966
  23.750   1.9973   0.19762   0.19386  -0.2197  0.0333  1.0000  -7.5468   0.0000   0.0000   0.0000   0.2968
  24.000   1.9962   0.20062   0.19689  -0.2217  0.0310  1.0000  -7.7037   0.0000   0.0000   0.0000   0.2969
  24.250   1.9946   0.20368   0.19998  -0.2238  0.0289  1.0000  -7.8555   0.0000   0.0000   0.0000   0.2972
  24.500   1.9936   0.20662   0.20296  -0.2259  0.0269  1.0000  -8.0130   0.0000   0.0000   0.0000   0.2973
  24.750   1.9917   0.20970   0.20607  -0.2282  0.0250  1.0000  -8.1624   0.0000   0.0000   0.0000   0.2976
  25.000   1.9902   0.21270   0.20910  -0.2304  0.0232  1.0000  -8.3157   0.0000   0.0000   0.0000   0.2979


