xflr5 v6.59

 Calculated polar for: TKV2008

 1 1 Reynolds number fixed          Mach number fixed         

 xtrf =   1.000 (top)        1.000 (bottom)
 Mach =   0.000     Re =     0.500 e 6     Ncrit =   9.000

  alpha     CL        CD       CDp       Cm    Top Xtr Bot Xtr   Cpmin    Chinge    XCp    
 ------- -------- --------- --------- -------- ------- ------- -------- --------- ---------
 -25.000  -0.4722   0.26878   0.26604   0.0051  1.0000  0.0075  -1.3649   0.0000   0.0000   0.0000   0.2200
 -24.750  -0.4650   0.26673   0.26399   0.0036  1.0000  0.0076  -1.3478   0.0000   0.0000   0.0000   0.2169
 -24.500  -0.4577   0.26464   0.26191   0.0021  1.0000  0.0077  -1.3337   0.0000   0.0000   0.0000   0.2137
 -24.250  -0.4503   0.26252   0.25980   0.0006  1.0000  0.0078  -1.3250   0.0000   0.0000   0.0000   0.2105
 -24.000  -0.4430   0.26039   0.25767  -0.0009  1.0000  0.0079  -1.3166   0.0000   0.0000   0.0000   0.2072
 -23.750  -0.4356   0.25823   0.25551  -0.0023  1.0000  0.0080  -1.3085   0.0000   0.0000   0.0000   0.2038
 -23.500  -0.4282   0.25606   0.25335  -0.0038  1.0000  0.0082  -1.3005   0.0000   0.0000   0.0000   0.2003
 -23.250  -0.4208   0.25386   0.25116  -0.0052  1.0000  0.0083  -1.2927   0.0000   0.0000   0.0000   0.1968
 -23.000  -0.4134   0.25165   0.24895  -0.0065  1.0000  0.0084  -1.2944   0.0000   0.0000   0.0000   0.1931
 -22.750  -0.4060   0.24944   0.24674  -0.0079  1.0000  0.0085  -1.2973   0.0000   0.0000   0.0000   0.1894
 -22.500  -0.3986   0.24718   0.24450  -0.0092  1.0000  0.0086  -1.3015   0.0000   0.0000   0.0000   0.1856
 -20.750  -0.3473   0.23118   0.22855  -0.0181  1.0000  0.0088  -1.3753   0.0000   0.0000   0.0000   0.1550
 -20.500  -0.3402   0.22895   0.22634  -0.0190  1.0000  0.0088  -1.3403   0.0000   0.0000   0.0000   0.1510
 -20.250  -0.3331   0.22680   0.22420  -0.0200  1.0000  0.0089  -1.3145   0.0000   0.0000   0.0000   0.1467
 -20.000  -0.3260   0.22469   0.22209  -0.0210  1.0000  0.0090  -1.2962   0.0000   0.0000   0.0000   0.1421
 -19.750  -0.3189   0.22253   0.21995  -0.0220  1.0000  0.0091  -1.2830   0.0000   0.0000   0.0000   0.1374
 -19.500  -0.3119   0.22039   0.21782  -0.0230  1.0000  0.0092  -1.2734   0.0000   0.0000   0.0000   0.1325
 -19.250  -0.3049   0.21822   0.21566  -0.0239  1.0000  0.0093  -1.2661   0.0000   0.0000   0.0000   0.1274
 -19.000  -0.2979   0.21603   0.21349  -0.0248  1.0000  0.0094  -1.2599   0.0000   0.0000   0.0000   0.1223
 -18.750  -0.2911   0.21383   0.21130  -0.0257  1.0000  0.0095  -1.2545   0.0000   0.0000   0.0000   0.1171
 -18.500  -0.2843   0.21162   0.20911  -0.0265  1.0000  0.0096  -1.2498   0.0000   0.0000   0.0000   0.1118
 -18.250  -0.2777   0.20941   0.20691  -0.0272  1.0000  0.0097  -1.2458   0.0000   0.0000   0.0000   0.1065
 -18.000  -0.2711   0.20720   0.20472  -0.0280  1.0000  0.0099  -1.2425   0.0000   0.0000   0.0000   0.1011
 -16.000  -0.1969   0.18648   0.18409  -0.0405  0.9973  0.0104  -1.3149   0.0000   0.0000   0.0000  -0.0130
 -15.750  -0.1776   0.18299   0.18060  -0.0449  0.9960  0.0105  -1.2698   0.0000   0.0000   0.0000  -0.0657
 -15.500  -0.1591   0.17948   0.17708  -0.0490  0.9941  0.0106  -1.2389   0.0000   0.0000   0.0000  -0.1284
 -15.250  -0.1397   0.17595   0.17354  -0.0534  0.9925  0.0107  -1.2149   0.0000   0.0000   0.0000  -0.2123
 -15.000  -0.1196   0.17238   0.16996  -0.0580  0.9913  0.0109  -1.1951   0.0000   0.0000   0.0000  -0.3283
 -14.750  -0.1016   0.16879   0.16638  -0.0619  0.9893  0.0111  -1.1798   0.0000   0.0000   0.0000  -0.4694
 -14.500  -0.0834   0.16525   0.16283  -0.0659  0.9874  0.0113  -1.1668   0.0000   0.0000   0.0000  -0.6732
 -14.250  -0.0641   0.16160   0.15917  -0.0702  0.9860  0.0115  -1.1558   0.0000   0.0000   0.0000  -1.0178
 -14.000  -0.0440   0.15788   0.15544  -0.0747  0.9850  0.0117  -1.1494   0.0000   0.0000   0.0000  -1.6993
 -13.750  -0.0284   0.15435   0.15191  -0.0779  0.9819  0.0119  -1.1544   0.0000   0.0000   0.0000  -2.8855
 -11.750   0.0838   0.12863   0.12623  -0.0976  0.9294  0.0128  -1.1175   0.0000   0.0000   0.0000   1.5356
 -11.500   0.1027   0.12493   0.12250  -0.1013  0.9132  0.0131  -1.1088   0.0000   0.0000   0.0000   1.3343
 -11.250   0.1348   0.11996   0.11746  -0.1090  0.9027  0.0134  -1.1021   0.0000   0.0000   0.0000   1.1341
 -11.000   0.1774   0.11405   0.11146  -0.1203  0.8932  0.0137  -1.1392   0.0000   0.0000   0.0000   0.9872
 -10.750   0.2325   0.10741   0.10467  -0.1350  0.8806  0.0138  -1.1108   0.0000   0.0000   0.0000   0.8778
 -10.500   0.2991   0.10086   0.09786  -0.1525  0.8577  0.0142  -1.0205   0.0000   0.0000   0.0000   0.7983
 -10.250   0.3338   0.09710   0.09376  -0.1605  0.8149  0.0146  -1.0024   0.0000   0.0000   0.0000   0.7658
 -10.000   0.3443   0.09511   0.09155  -0.1614  0.7839  0.0149  -1.0071   0.0000   0.0000   0.0000   0.7520
  -9.750   0.3522   0.09322   0.08951  -0.1617  0.7626  0.0152  -1.0235   0.0000   0.0000   0.0000   0.7406
  -9.500   0.3590   0.09123   0.08742  -0.1621  0.7458  0.0154  -1.0924   0.0000   0.0000   0.0000   0.7319
  -9.250   0.3657   0.08924   0.08536  -0.1625  0.7321  0.0155  -1.1381   0.0000   0.0000   0.0000   0.7233
  -9.000   0.3751   0.08740   0.08345  -0.1624  0.7199  0.0156  -1.0796   0.0000   0.0000   0.0000   0.7104
  -8.750   0.3839   0.08563   0.08162  -0.1625  0.7092  0.0158  -1.0485   0.0000   0.0000   0.0000   0.6994
  -8.500   0.3926   0.08385   0.07978  -0.1627  0.6996  0.0160  -1.0309   0.0000   0.0000   0.0000   0.6892
  -8.250   0.4011   0.08204   0.07793  -0.1629  0.6907  0.0163  -1.0210   0.0000   0.0000   0.0000   0.6797
  -8.000   0.4095   0.08019   0.07605  -0.1631  0.6826  0.0166  -1.0215   0.0000   0.0000   0.0000   0.6707
  -7.750   0.4178   0.07833   0.07415  -0.1634  0.6756  0.0170  -1.0288   0.0000   0.0000   0.0000   0.6623
  -7.500   0.4245   0.07636   0.07217  -0.1639  0.6688  0.0172  -1.0847   0.0000   0.0000   0.0000   0.6562
  -7.250   0.4302   0.07442   0.07021  -0.1643  0.6628  0.0173  -1.1433   0.0000   0.0000   0.0000   0.6511
  -7.000   0.4403   0.07268   0.06845  -0.1640  0.6563  0.0175  -1.0704   0.0000   0.0000   0.0000   0.6404
  -6.750   0.4490   0.07105   0.06680  -0.1638  0.6507  0.0177  -1.0581   0.0000   0.0000   0.0000   0.6318
  -6.500   0.4566   0.06942   0.06516  -0.1636  0.6450  0.0180  -1.0657   0.0000   0.0000   0.0000   0.6242
  -6.250   0.4636   0.06778   0.06349  -0.1634  0.6402  0.0184  -1.0728   0.0000   0.0000   0.0000   0.6173
  -6.000   0.4682   0.06609   0.06183  -0.1628  0.6349  0.0189  -1.0782   0.0000   0.0000   0.0000   0.6118
  -5.750   0.4626   0.06452   0.06026  -0.1618  0.6304  0.0192  -1.2027   0.0000   0.0000   0.0000   0.6133
  -5.500   0.4721   0.06287   0.05861  -0.1610  0.6255  0.0193  -1.1362   0.0000   0.0000   0.0000   0.6035
  -5.250   0.4809   0.06135   0.05710  -0.1606  0.6206  0.0196  -1.0944   0.0000   0.0000   0.0000   0.5956
  -5.000   0.4909   0.05973   0.05544  -0.1610  0.6164  0.0200  -1.1035   0.0000   0.0000   0.0000   0.5887
  -4.750   0.5003   0.05793   0.05367  -0.1617  0.6119  0.0206  -1.1112   0.0000   0.0000   0.0000   0.5829
  -4.500   0.5129   0.05528   0.05102  -0.1652  0.6079  0.0213  -1.2156   0.0000   0.0000   0.0000   0.5811
  -4.250   0.5267   0.05379   0.04949  -0.1653  0.6041  0.0216  -1.1293   0.0000   0.0000   0.0000   0.5720
  -4.000   0.5414   0.05194   0.04767  -0.1668  0.5998  0.0222  -1.1405   0.0000   0.0000   0.0000   0.5653
  -3.750   0.5710   0.04801   0.04370  -0.1758  0.5959  0.0233  -1.2778   0.0000   0.0000   0.0000   0.5642
  -3.500   0.5873   0.04667   0.04232  -0.1757  0.5921  0.0236  -1.1691   0.0000   0.0000   0.0000   0.5548
  -3.250   0.6095   0.04465   0.04031  -0.1785  0.5878  0.0244  -1.1858   0.0000   0.0000   0.0000   0.5476
  -3.000   0.6521   0.04068   0.03626  -0.1885  0.5838  0.0258  -1.2084   0.0000   0.0000   0.0000   0.5431
  -2.750   0.6854   0.03849   0.03400  -0.1934  0.5801  0.0269  -1.2319   0.0000   0.0000   0.0000   0.5354
  -1.500   1.0380   0.01581   0.00913  -0.2589  0.5596  0.0308  -1.4466   0.0000   0.0000   0.0000   0.4996
  -1.250   1.0787   0.01451   0.00738  -0.2615  0.5559  0.0282  -1.4789   0.0000   0.0000   0.0000   0.4922
  -1.000   1.1102   0.01402   0.00678  -0.2623  0.5518  0.0287  -1.5069   0.0000   0.0000   0.0000   0.4855
  -0.750   1.1411   0.01369   0.00632  -0.2629  0.5482  0.0298  -1.5348   0.0000   0.0000   0.0000   0.4792
  -0.500   1.1711   0.01352   0.00609  -0.2634  0.5447  0.0319  -1.5624   0.0000   0.0000   0.0000   0.4732
  -0.250   1.2004   0.01330   0.00587  -0.2637  0.5405  0.0338  -1.5901   0.0000   0.0000   0.0000   0.4675
   0.000   1.2296   0.01319   0.00573  -0.2640  0.5368  0.0367  -1.6190   0.0000   0.0000   0.0000   0.4621
   0.250   1.2591   0.01313   0.00564  -0.2645  0.5333  0.0401  -1.6481   0.0000   0.0000   0.0000   0.4569
   0.500   1.2878   0.01305   0.00558  -0.2647  0.5294  0.0454  -1.6766   0.0000   0.0000   0.0000   0.4519
   0.750   1.3165   0.01302   0.00554  -0.2649  0.5260  0.0562  -1.7054   0.0000   0.0000   0.0000   0.4471
   1.000   1.3479   0.01287   0.00567  -0.2659  0.5227  0.1976  -1.7361   0.0000   0.0000   0.0000   0.4428
   1.250   1.3743   0.01292   0.00579  -0.2657  0.5189  0.2386  -1.7634   0.0000   0.0000   0.0000   0.4383
   1.500   1.4008   0.01300   0.00590  -0.2655  0.5152  0.2678  -1.7913   0.0000   0.0000   0.0000   0.4341
   1.750   1.4283   0.01314   0.00602  -0.2655  0.5119  0.3025  -1.8206   0.0000   0.0000   0.0000   0.4300
   2.000   1.4548   0.01314   0.00620  -0.2654  0.5081  0.3667  -1.8503   0.0000   0.0000   0.0000   0.4260
   2.250   1.4833   0.01296   0.00653  -0.2659  0.5044  0.6414  -1.8830   0.0000   0.0000   0.0000   0.4224
   2.750   1.5294   0.01288   0.00680  -0.2638  0.4979  1.0000  -1.9400   0.0000   0.0000   0.0000   0.4147
   3.000   1.5548   0.01304   0.00692  -0.2634  0.4943  1.0000  -1.9704   0.0000   0.0000   0.0000   0.4112
   3.250   1.5805   0.01326   0.00705  -0.2631  0.4910  1.0000  -2.0012   0.0000   0.0000   0.0000   0.4077
   3.500   1.6057   0.01345   0.00721  -0.2627  0.4875  1.0000  -2.0314   0.0000   0.0000   0.0000   0.4044
   3.750   1.6301   0.01362   0.00737  -0.2621  0.4837  1.0000  -2.0612   0.0000   0.0000   0.0000   0.4011
   4.000   1.6548   0.01384   0.00753  -0.2616  0.4804  1.0000  -2.0914   0.0000   0.0000   0.0000   0.3979
   4.250   1.6793   0.01406   0.00772  -0.2611  0.4770  1.0000  -2.1212   0.0000   0.0000   0.0000   0.3948
   4.500   1.7025   0.01425   0.00791  -0.2603  0.4734  1.0000  -2.1501   0.0000   0.0000   0.0000   0.3918
   4.750   1.7259   0.01447   0.00810  -0.2596  0.4702  1.0000  -2.1793   0.0000   0.0000   0.0000   0.3888
   5.000   1.7497   0.01473   0.00832  -0.2589  0.4670  1.0000  -2.2087   0.0000   0.0000   0.0000   0.3859
   5.250   1.7716   0.01493   0.00855  -0.2579  0.4634  1.0000  -2.2372   0.0000   0.0000   0.0000   0.3830
   5.500   1.7940   0.01517   0.00877  -0.2570  0.4602  1.0000  -2.2694   0.0000   0.0000   0.0000   0.3802
   5.750   1.8182   0.01548   0.00902  -0.2565  0.4573  1.0000  -2.3030   0.0000   0.0000   0.0000   0.3775
   6.000   1.8387   0.01570   0.00930  -0.2553  0.4539  1.0000  -2.3333   0.0000   0.0000   0.0000   0.3748
   6.250   1.8598   0.01595   0.00957  -0.2541  0.4505  1.0000  -2.3644   0.0000   0.0000   0.0000   0.3721
   6.500   1.8820   0.01626   0.00984  -0.2533  0.4474  1.0000  -2.3966   0.0000   0.0000   0.0000   0.3695
   6.750   1.9018   0.01653   0.01016  -0.2520  0.4438  1.0000  -2.4264   0.0000   0.0000   0.0000   0.3669
   7.000   1.9214   0.01682   0.01047  -0.2506  0.4402  1.0000  -2.4579   0.0000   0.0000   0.0000   0.3644
   7.250   1.9423   0.01716   0.01078  -0.2496  0.4371  1.0000  -2.4911   0.0000   0.0000   0.0000   0.3619
   7.500   1.9616   0.01748   0.01115  -0.2482  0.4336  1.0000  -2.5224   0.0000   0.0000   0.0000   0.3594
   7.750   1.9805   0.01781   0.01152  -0.2468  0.4302  1.0000  -2.5535   0.0000   0.0000   0.0000   0.3570
   8.000   2.0006   0.01818   0.01188  -0.2457  0.4272  1.0000  -2.5859   0.0000   0.0000   0.0000   0.3546
   8.250   2.0200   0.01857   0.01230  -0.2445  0.4241  1.0000  -2.6174   0.0000   0.0000   0.0000   0.3523
   8.500   2.0376   0.01895   0.01275  -0.2429  0.4207  1.0000  -2.6472   0.0000   0.0000   0.0000   0.3500
   8.750   2.0559   0.01936   0.01318  -0.2415  0.4175  1.0000  -2.6779   0.0000   0.0000   0.0000   0.3477
   9.000   2.0745   0.01981   0.01364  -0.2402  0.4143  1.0000  -2.7087   0.0000   0.0000   0.0000   0.3455
   9.250   2.0906   0.02026   0.01417  -0.2384  0.4108  1.0000  -2.7369   0.0000   0.0000   0.0000   0.3432
   9.500   2.1075   0.02074   0.01468  -0.2369  0.4076  1.0000  -2.7661   0.0000   0.0000   0.0000   0.3410
   9.750   2.1262   0.02125   0.01519  -0.2357  0.4047  1.0000  -2.7970   0.0000   0.0000   0.0000   0.3389
  10.000   2.1393   0.02181   0.01585  -0.2335  0.4008  1.0000  -2.8222   0.0000   0.0000   0.0000   0.3366
  10.250   2.1529   0.02240   0.01648  -0.2315  0.3968  1.0000  -2.8707   0.0000   0.0000   0.0000   0.3345
  10.500   2.1652   0.02308   0.01721  -0.2293  0.3923  1.0000  -2.9252   0.0000   0.0000   0.0000   0.3323
  10.750   2.1760   0.02380   0.01800  -0.2270  0.3876  1.0000  -2.9780   0.0000   0.0000   0.0000   0.3301
  11.000   2.1873   0.02459   0.01882  -0.2248  0.3832  1.0000  -3.0317   0.0000   0.0000   0.0000   0.3280
  11.250   2.1971   0.02544   0.01976  -0.2225  0.3783  1.0000  -3.0832   0.0000   0.0000   0.0000   0.3259
  11.500   2.2082   0.02634   0.02066  -0.2205  0.3744  1.0000  -3.1387   0.0000   0.0000   0.0000   0.3238
  11.750   2.2178   0.02728   0.02173  -0.2183  0.3700  1.0000  -3.2026   0.0000   0.0000   0.0000   0.3218
  12.000   2.2265   0.02836   0.02283  -0.2161  0.3657  1.0000  -3.2691   0.0000   0.0000   0.0000   0.3199
  12.250   2.2347   0.02949   0.02407  -0.2140  0.3610  1.0000  -3.3369   0.0000   0.0000   0.0000   0.3179
  12.500   2.2421   0.03074   0.02537  -0.2118  0.3567  1.0000  -3.4036   0.0000   0.0000   0.0000   0.3161
  12.750   2.2495   0.03206   0.02676  -0.2098  0.3524  1.0000  -3.4705   0.0000   0.0000   0.0000   0.3142
  13.000   2.2553   0.03353   0.02831  -0.2077  0.3475  1.0000  -3.5367   0.0000   0.0000   0.0000   0.3124
  13.250   2.2603   0.03514   0.03000  -0.2057  0.3426  1.0000  -3.6052   0.0000   0.0000   0.0000   0.3107
  13.500   2.2638   0.03694   0.03186  -0.2037  0.3373  1.0000  -3.6710   0.0000   0.0000   0.0000   0.3090
  13.750   2.2673   0.03882   0.03383  -0.2018  0.3320  1.0000  -3.7367   0.0000   0.0000   0.0000   0.3074
  14.000   2.2689   0.04094   0.03601  -0.1999  0.3268  1.0000  -3.7987   0.0000   0.0000   0.0000   0.3058
  14.250   2.2713   0.04309   0.03826  -0.1983  0.3213  1.0000  -3.8751   0.0000   0.0000   0.0000   0.3043
  14.750   2.2710   0.04809   0.04341  -0.1950  0.3102  1.0000  -4.0307   0.0000   0.0000   0.0000   0.3015
  15.000   2.2687   0.05093   0.04632  -0.1934  0.3046  1.0000  -4.1030   0.0000   0.0000   0.0000   0.3002
  15.250   2.2650   0.05402   0.04948  -0.1919  0.2985  1.0000  -4.1722   0.0000   0.0000   0.0000   0.2989
  15.500   2.2610   0.05724   0.05279  -0.1906  0.2919  1.0000  -4.2470   0.0000   0.0000   0.0000   0.2978
  15.750   2.2543   0.06085   0.05647  -0.1893  0.2851  1.0000  -4.3137   0.0000   0.0000   0.0000   0.2967
  16.000   2.2450   0.06487   0.06054  -0.1881  0.2780  1.0000  -4.3718   0.0000   0.0000   0.0000   0.2958
  16.250   2.2358   0.06900   0.06475  -0.1871  0.2702  1.0000  -4.4302   0.0000   0.0000   0.0000   0.2949
  16.500   2.2254   0.07335   0.06917  -0.1862  0.2621  1.0000  -4.4848   0.0000   0.0000   0.0000   0.2941
  16.750   2.2126   0.07812   0.07400  -0.1854  0.2536  1.0000  -4.5306   0.0000   0.0000   0.0000   0.2935
  17.000   2.1981   0.08321   0.07914  -0.1848  0.2444  1.0000  -4.6002   0.0000   0.0000   0.0000   0.2930
  17.250   2.1813   0.08871   0.08468  -0.1843  0.2343  1.0000  -4.6634   0.0000   0.0000   0.0000   0.2927
  17.500   2.1631   0.09450   0.09049  -0.1841  0.2238  1.0000  -4.7196   0.0000   0.0000   0.0000   0.2925
  17.750   2.1446   0.10040   0.09643  -0.1842  0.2124  1.0000  -4.7718   0.0000   0.0000   0.0000   0.2925
  18.000   2.1254   0.10646   0.10249  -0.1845  0.2006  1.0000  -4.8171   0.0000   0.0000   0.0000   0.2926
  18.250   2.1053   0.11269   0.10872  -0.1851  0.1890  1.0000  -4.8541   0.0000   0.0000   0.0000   0.2929
  18.500   2.0866   0.11876   0.11479  -0.1859  0.1765  1.0000  -4.8946   0.0000   0.0000   0.0000   0.2934
  18.750   2.0679   0.12486   0.12086  -0.1871  0.1655  1.0000  -4.9310   0.0000   0.0000   0.0000   0.2939
  19.000   2.0524   0.13045   0.12644  -0.1883  0.1550  1.0000  -4.9834   0.0000   0.0000   0.0000   0.2944
  19.250   2.0385   0.13579   0.13178  -0.1897  0.1456  1.0000  -5.0428   0.0000   0.0000   0.0000   0.2949
  19.500   2.0265   0.14082   0.13680  -0.1911  0.1372  1.0000  -5.1120   0.0000   0.0000   0.0000   0.2954
  19.750   2.0171   0.14546   0.14144  -0.1926  0.1294  1.0000  -5.1954   0.0000   0.0000   0.0000   0.2958
  20.000   2.0089   0.14989   0.14588  -0.1942  0.1223  1.0000  -5.2852   0.0000   0.0000   0.0000   0.2962
  20.250   2.0019   0.15411   0.15011  -0.1957  0.1158  1.0000  -5.3822   0.0000   0.0000   0.0000   0.2965
  20.500   1.9963   0.15808   0.15410  -0.1973  0.1096  1.0000  -5.4879   0.0000   0.0000   0.0000   0.2968
  20.750   1.9911   0.16199   0.15803  -0.1990  0.1039  1.0000  -5.5955   0.0000   0.0000   0.0000   0.2971
  21.000   1.9859   0.16589   0.16195  -0.2008  0.0986  1.0000  -5.7028   0.0000   0.0000   0.0000   0.2975
  21.250   1.9811   0.16972   0.16578  -0.2026  0.0935  1.0000  -5.8119   0.0000   0.0000   0.0000   0.2978
  21.500   1.9779   0.17325   0.16934  -0.2044  0.0883  1.0000  -5.9331   0.0000   0.0000   0.0000   0.2981
  21.750   1.9752   0.17669   0.17280  -0.2062  0.0834  1.0000  -6.0581   0.0000   0.0000   0.0000   0.2983
  22.000   1.9726   0.18008   0.17623  -0.2081  0.0787  1.0000  -6.1832   0.0000   0.0000   0.0000   0.2985
  22.250   1.9697   0.18354   0.17971  -0.2100  0.0742  1.0000  -6.3066   0.0000   0.0000   0.0000   0.2988
  22.500   1.9669   0.18696   0.18314  -0.2121  0.0702  1.0000  -6.4300   0.0000   0.0000   0.0000   0.2992
  22.750   1.9639   0.19039   0.18660  -0.2142  0.0662  1.0000  -6.5516   0.0000   0.0000   0.0000   0.2995
  23.000   1.9619   0.19364   0.18987  -0.2162  0.0623  1.0000  -6.6813   0.0000   0.0000   0.0000   0.2998
  23.250   1.9604   0.19677   0.19304  -0.2183  0.0586  1.0000  -6.8161   0.0000   0.0000   0.0000   0.3001
  23.500   1.9586   0.19994   0.19624  -0.2204  0.0552  1.0000  -6.9475   0.0000   0.0000   0.0000   0.3004
  23.750   1.9569   0.20312   0.19944  -0.2226  0.0521  1.0000  -7.0841   0.0000   0.0000   0.0000   0.3007
  24.000   1.9544   0.20641   0.20276  -0.2250  0.0494  1.0000  -7.2162   0.0000   0.0000   0.0000   0.3012
  24.250   1.9541   0.20927   0.20567  -0.2271  0.0465  1.0000  -7.3705   0.0000   0.0000   0.0000   0.3013
  24.500   1.9531   0.21225   0.20870  -0.2293  0.0439  1.0000  -7.5180   0.0000   0.0000   0.0000   0.3016
  24.750   1.9510   0.21543   0.21191  -0.2317  0.0416  1.0000  -7.6540   0.0000   0.0000   0.0000   0.3021
  25.000   1.9492   0.21851   0.21502  -0.2342  0.0392  1.0000  -7.7933   0.0000   0.0000   0.0000   0.3025


