xflr5 v6.59

 Calculated polar for: TKV2008

 1 1 Reynolds number fixed          Mach number fixed         

 xtrf =   1.000 (top)        1.000 (bottom)
 Mach =   0.000     Re =     0.210 e 6     Ncrit =   9.000

  alpha     CL        CD       CDp       Cm    Top Xtr Bot Xtr   Cpmin    Chinge    XCp    
 ------- -------- --------- --------- -------- ------- ------- -------- --------- ---------
 -25.000  -0.4632   0.26887   0.26460   0.0018  1.0000  0.0131  -1.3079   0.0000   0.0000   0.0000   0.2122
 -24.750  -0.4558   0.26673   0.26247   0.0003  1.0000  0.0133  -1.3005   0.0000   0.0000   0.0000   0.2089
 -24.500  -0.4484   0.26458   0.26033  -0.0012  1.0000  0.0134  -1.2990   0.0000   0.0000   0.0000   0.2054
 -24.250  -0.4410   0.26243   0.25818  -0.0027  1.0000  0.0135  -1.2980   0.0000   0.0000   0.0000   0.2019
 -24.000  -0.4336   0.26026   0.25602  -0.0042  1.0000  0.0136  -1.2980   0.0000   0.0000   0.0000   0.1983
 -23.000  -0.4041   0.25149   0.24729  -0.0100  1.0000  0.0138  -1.3099   0.0000   0.0000   0.0000   0.1828
 -22.750  -0.3968   0.24933   0.24514  -0.0113  1.0000  0.0139  -1.2937   0.0000   0.0000   0.0000   0.1790
 -22.500  -0.3894   0.24716   0.24299  -0.0126  1.0000  0.0140  -1.2811   0.0000   0.0000   0.0000   0.1750
 -22.250  -0.3820   0.24507   0.24091  -0.0139  1.0000  0.0142  -1.2709   0.0000   0.0000   0.0000   0.1709
 -22.000  -0.3746   0.24293   0.23878  -0.0152  1.0000  0.0143  -1.2624   0.0000   0.0000   0.0000   0.1666
 -21.750  -0.3672   0.24076   0.23663  -0.0164  1.0000  0.0145  -1.2552   0.0000   0.0000   0.0000   0.1622
 -21.500  -0.3598   0.23859   0.23446  -0.0176  1.0000  0.0146  -1.2486   0.0000   0.0000   0.0000   0.1576
 -21.250  -0.3525   0.23638   0.23227  -0.0188  1.0000  0.0148  -1.2424   0.0000   0.0000   0.0000   0.1530
 -19.250  -0.2949   0.21865   0.21467  -0.0275  1.0000  0.0155  -1.2640   0.0000   0.0000   0.0000   0.1105
 -19.000  -0.2880   0.21645   0.21249  -0.0283  1.0000  0.0157  -1.2435   0.0000   0.0000   0.0000   0.1051
 -18.750  -0.2811   0.21429   0.21035  -0.0292  1.0000  0.0158  -1.2287   0.0000   0.0000   0.0000   0.0994
 -18.500  -0.2743   0.21214   0.20822  -0.0300  1.0000  0.0160  -1.2176   0.0000   0.0000   0.0000   0.0934
 -18.250  -0.2675   0.20998   0.20609  -0.0307  1.0000  0.0162  -1.2089   0.0000   0.0000   0.0000   0.0874
 -18.000  -0.2609   0.20782   0.20395  -0.0315  1.0000  0.0164  -1.2018   0.0000   0.0000   0.0000   0.0812
 -17.750  -0.2544   0.20565   0.20180  -0.0322  1.0000  0.0166  -1.1957   0.0000   0.0000   0.0000   0.0749
 -17.500  -0.2480   0.20348   0.19966  -0.0328  1.0000  0.0168  -1.1906   0.0000   0.0000   0.0000   0.0685
 -17.250  -0.2417   0.20132   0.19752  -0.0335  1.0000  0.0169  -1.1934   0.0000   0.0000   0.0000   0.0621
 -16.000  -0.2138   0.19073   0.18708  -0.0357  1.0000  0.0174  -1.2380   0.0000   0.0000   0.0000   0.0315
 -15.750  -0.2089   0.18869   0.18508  -0.0358  1.0000  0.0175  -1.2203   0.0000   0.0000   0.0000   0.0269
 -15.500  -0.2044   0.18674   0.18317  -0.0359  1.0000  0.0177  -1.2094   0.0000   0.0000   0.0000   0.0228
 -15.250  -0.2004   0.18486   0.18133  -0.0358  1.0000  0.0179  -1.2024   0.0000   0.0000   0.0000   0.0197
 -15.000  -0.1971   0.18304   0.17956  -0.0356  1.0000  0.0181  -1.1982   0.0000   0.0000   0.0000   0.0179
 -14.750  -0.1948   0.18136   0.17792  -0.0352  1.0000  0.0183  -1.1961   0.0000   0.0000   0.0000   0.0183
 -14.500  -0.1938   0.17984   0.17646  -0.0345  1.0000  0.0185  -1.1963   0.0000   0.0000   0.0000   0.0219
 -14.250  -0.1744   0.17624   0.17286  -0.0390  0.9980  0.0189  -1.1903   0.0000   0.0000   0.0000  -0.0294
 -13.500  -0.1081   0.16450   0.16109  -0.0546  0.9897  0.0194  -1.1686   0.0000   0.0000   0.0000  -0.3458
 -13.250  -0.0863   0.16064   0.15723  -0.0594  0.9865  0.0197  -1.1457   0.0000   0.0000   0.0000  -0.5517
 -13.000  -0.0647   0.15681   0.15338  -0.0641  0.9832  0.0201  -1.1324   0.0000   0.0000   0.0000  -0.8931
 -12.750  -0.0432   0.15295   0.14952  -0.0689  0.9799  0.0204  -1.1251   0.0000   0.0000   0.0000  -1.5759
 -12.500  -0.0228   0.14909   0.14565  -0.0734  0.9758  0.0208  -1.1254   0.0000   0.0000   0.0000  -3.4036
 -12.250  -0.0011   0.14520   0.14175  -0.0784  0.9728  0.0211  -1.1401   0.0000   0.0000   0.0000  -78.6700
 -11.750   0.0364   0.13763   0.13419  -0.0860  0.9609  0.0215  -1.1226   0.0000   0.0000   0.0000   2.8820
 -11.500   0.0545   0.13404   0.13060  -0.0893  0.9536  0.0218  -1.0976   0.0000   0.0000   0.0000   2.0681
 -11.250   0.0717   0.13053   0.12710  -0.0925  0.9448  0.0223  -1.0836   0.0000   0.0000   0.0000   1.6746
 -11.000   0.0849   0.12733   0.12391  -0.0945  0.9310  0.0227  -1.0791   0.0000   0.0000   0.0000   1.4746
 -10.750   0.1007   0.12393   0.12050  -0.0976  0.9196  0.0232  -1.0934   0.0000   0.0000   0.0000   1.3115
 -10.500   0.1182   0.12038   0.11693  -0.1010  0.9081  0.0234  -1.0986   0.0000   0.0000   0.0000   1.1830
 -10.250   0.1413   0.11647   0.11299  -0.1052  0.8989  0.0239  -1.0494   0.0000   0.0000   0.0000   1.0597
 -10.000   0.1691   0.11227   0.10874  -0.1112  0.8905  0.0246  -1.0347   0.0000   0.0000   0.0000   0.9619
  -9.750   0.2016   0.10778   0.10417  -0.1188  0.8811  0.0252  -1.0443   0.0000   0.0000   0.0000   0.8856
  -9.500   0.2403   0.10288   0.09916  -0.1286  0.8715  0.0256  -1.0678   0.0000   0.0000   0.0000   0.8246
  -9.250   0.2883   0.09764   0.09378  -0.1397  0.8606  0.0264  -1.0047   0.0000   0.0000   0.0000   0.7684
  -9.000   0.3342   0.09283   0.08879  -0.1510  0.8453  0.0274  -0.9941   0.0000   0.0000   0.0000   0.7315
  -8.750   0.3675   0.08909   0.08485  -0.1591  0.8257  0.0279  -1.0153   0.0000   0.0000   0.0000   0.7100
  -8.500   0.3901   0.08634   0.08192  -0.1626  0.8066  0.0285  -0.9990   0.0000   0.0000   0.0000   0.6920
  -8.250   0.4056   0.08418   0.07961  -0.1647  0.7905  0.0293  -1.0099   0.0000   0.0000   0.0000   0.6798
  -8.000   0.4170   0.08226   0.07758  -0.1662  0.7770  0.0300  -1.0180   0.0000   0.0000   0.0000   0.6709
  -7.750   0.4261   0.08044   0.07567  -0.1672  0.7651  0.0303  -1.0248   0.0000   0.0000   0.0000   0.6637
  -7.500   0.4373   0.07854   0.07371  -0.1673  0.7544  0.0309  -1.0357   0.0000   0.0000   0.0000   0.6526
  -7.250   0.4469   0.07683   0.07194  -0.1676  0.7447  0.0318  -1.0440   0.0000   0.0000   0.0000   0.6441
  -7.000   0.4533   0.07529   0.07035  -0.1687  0.7360  0.0327  -1.0476   0.0000   0.0000   0.0000   0.6401
  -6.750   0.4648   0.07331   0.06832  -0.1686  0.7279  0.0333  -1.0587   0.0000   0.0000   0.0000   0.6296
  -6.500   0.4732   0.07171   0.06670  -0.1684  0.7198  0.0342  -1.0666   0.0000   0.0000   0.0000   0.6219
  -6.250   0.4810   0.07008   0.06502  -0.1690  0.7131  0.0352  -1.0728   0.0000   0.0000   0.0000   0.6165
  -6.000   0.4852   0.06853   0.06348  -0.1687  0.7059  0.0356  -1.0773   0.0000   0.0000   0.0000   0.6119
  -5.750   0.4958   0.06683   0.06174  -0.1684  0.6998  0.0363  -1.0882   0.0000   0.0000   0.0000   0.6029
  -5.500   0.5008   0.06551   0.06042  -0.1677  0.6934  0.0373  -1.0939   0.0000   0.0000   0.0000   0.5974
  -5.250   0.5074   0.06405   0.05895  -0.1702  0.6879  0.0382  -1.0957   0.0000   0.0000   0.0000   0.5971
  -5.000   0.5188   0.06223   0.05713  -0.1690  0.6818  0.0389  -1.1082   0.0000   0.0000   0.0000   0.5865
  -4.750   0.5334   0.06046   0.05530  -0.1706  0.6771  0.0403  -1.1192   0.0000   0.0000   0.0000   0.5797
  -4.500   0.5446   0.05859   0.05347  -0.1736  0.6712  0.0414  -1.1240   0.0000   0.0000   0.0000   0.5778
  -4.250   0.5603   0.05683   0.05165  -0.1738  0.6664  0.0426  -1.1384   0.0000   0.0000   0.0000   0.5684
  -4.000   0.5809   0.05450   0.04933  -0.1799  0.6609  0.0445  -1.1477   0.0000   0.0000   0.0000   0.5671
  -3.750   0.5947   0.05293   0.04774  -0.1787  0.6559  0.0459  -1.1628   0.0000   0.0000   0.0000   0.5572
  -3.500   0.6207   0.05052   0.04528  -0.1841  0.6514  0.0485  -1.1785   0.0000   0.0000   0.0000   0.5525
  -3.000   0.6738   0.04616   0.04083  -0.1923  0.6420  0.0540  -1.2144   0.0000   0.0000   0.0000   0.5398
  -2.750   0.7059   0.04366   0.03830  -0.1980  0.6371  0.0570  -1.2342   0.0000   0.0000   0.0000   0.5342
  -2.500   0.7453   0.04095   0.03551  -0.2052  0.6323  0.0612  -1.2586   0.0000   0.0000   0.0000   0.5283
  -2.250   0.7921   0.03821   0.03260  -0.2134  0.6283  0.0668  -1.2894   0.0000   0.0000   0.0000   0.5217
  -1.250   1.0516   0.02260   0.01524  -0.2581  0.6093  0.0608  -1.4508   0.0000   0.0000   0.0000   0.4954
  -1.000   1.1017   0.02064   0.01256  -0.2627  0.6055  0.0532  -1.4873   0.0000   0.0000   0.0000   0.4880
  -0.750   1.1370   0.01979   0.01129  -0.2641  0.6008  0.0517  -1.5154   0.0000   0.0000   0.0000   0.4813
  -0.500   1.1680   0.01935   0.01075  -0.2648  0.5964  0.0546  -1.5437   0.0000   0.0000   0.0000   0.4753
  -0.250   1.2019   0.01895   0.01019  -0.2659  0.5930  0.0571  -1.5748   0.0000   0.0000   0.0000   0.4694
   0.000   1.2290   0.01874   0.01003  -0.2658  0.5881  0.0619  -1.6007   0.0000   0.0000   0.0000   0.4639
   0.250   1.2598   0.01854   0.00982  -0.2664  0.5841  0.0687  -1.6297   0.0000   0.0000   0.0000   0.4587
   0.500   1.2938   0.01840   0.00966  -0.2678  0.5807  0.0833  -1.6615   0.0000   0.0000   0.0000   0.4537
   0.750   1.3235   0.01813   0.00986  -0.2684  0.5758  0.2267  -1.6890   0.0000   0.0000   0.0000   0.4491
   1.000   1.3518   0.01825   0.00999  -0.2686  0.5718  0.2944  -1.7176   0.0000   0.0000   0.0000   0.4445
   1.250   1.3812   0.01838   0.01014  -0.2691  0.5682  0.3490  -1.7476   0.0000   0.0000   0.0000   0.4401
   1.500   1.4071   0.01845   0.01045  -0.2689  0.5636  0.4217  -1.7743   0.0000   0.0000   0.0000   0.4360
   1.750   1.4349   0.01819   0.01081  -0.2689  0.5601  0.7334  -1.8040   0.0000   0.0000   0.0000   0.4318
   2.000   1.4552   0.01807   0.01073  -0.2671  0.5571  1.0000  -1.8300   0.0000   0.0000   0.0000   0.4274
   2.250   1.4790   0.01837   0.01100  -0.2664  0.5525  1.0000  -1.8575   0.0000   0.0000   0.0000   0.4236
   2.500   1.5066   0.01862   0.01112  -0.2664  0.5487  1.0000  -1.8889   0.0000   0.0000   0.0000   0.4198
   2.750   1.5363   0.01890   0.01122  -0.2669  0.5455  1.0000  -1.9223   0.0000   0.0000   0.0000   0.4162
   3.000   1.5589   0.01923   0.01157  -0.2660  0.5410  1.0000  -1.9491   0.0000   0.0000   0.0000   0.4126
   3.250   1.5858   0.01949   0.01175  -0.2659  0.5373  1.0000  -1.9802   0.0000   0.0000   0.0000   0.4092
   3.500   1.6163   0.01977   0.01187  -0.2665  0.5345  1.0000  -2.0146   0.0000   0.0000   0.0000   0.4060
   3.750   1.6371   0.02014   0.01231  -0.2654  0.5300  1.0000  -2.0397   0.0000   0.0000   0.0000   0.4027
   4.000   1.6631   0.02042   0.01254  -0.2651  0.5263  1.0000  -2.0701   0.0000   0.0000   0.0000   0.3995
   4.250   1.6933   0.02068   0.01267  -0.2657  0.5234  1.0000  -2.1046   0.0000   0.0000   0.0000   0.3966
   4.500   1.7134   0.02109   0.01316  -0.2645  0.5190  1.0000  -2.1291   0.0000   0.0000   0.0000   0.3935
   4.750   1.7384   0.02139   0.01343  -0.2641  0.5153  1.0000  -2.1588   0.0000   0.0000   0.0000   0.3906
   5.000   1.7681   0.02165   0.01358  -0.2646  0.5123  1.0000  -2.1959   0.0000   0.0000   0.0000   0.3878
   5.250   1.7875   0.02209   0.01412  -0.2632  0.5081  1.0000  -2.2238   0.0000   0.0000   0.0000   0.3850
   5.500   1.8114   0.02242   0.01446  -0.2627  0.5044  1.0000  -2.2565   0.0000   0.0000   0.0000   0.3822
   5.750   1.8404   0.02269   0.01464  -0.2631  0.5015  1.0000  -2.2943   0.0000   0.0000   0.0000   0.3797
   6.000   1.8599   0.02316   0.01519  -0.2618  0.4975  1.0000  -2.3224   0.0000   0.0000   0.0000   0.3770
   6.250   1.8823   0.02353   0.01560  -0.2610  0.4938  1.0000  -2.3537   0.0000   0.0000   0.0000   0.3744
   6.500   1.9103   0.02382   0.01583  -0.2613  0.4910  1.0000  -2.3907   0.0000   0.0000   0.0000   0.3720
   6.750   1.9310   0.02430   0.01639  -0.2603  0.4874  1.0000  -2.4216   0.0000   0.0000   0.0000   0.3694
   7.000   1.9508   0.02474   0.01690  -0.2590  0.4835  1.0000  -2.4525   0.0000   0.0000   0.0000   0.3669
   7.500   1.9987   0.02548   0.01766  -0.2581  0.4769  1.0000  -2.5230   0.0000   0.0000   0.0000   0.3623
   7.750   2.0161   0.02598   0.01826  -0.2565  0.4729  1.0000  -2.5516   0.0000   0.0000   0.0000   0.3598
   8.000   2.0418   0.02628   0.01854  -0.2564  0.4698  1.0000  -2.5890   0.0000   0.0000   0.0000   0.3576
   8.250   2.0630   0.02675   0.01906  -0.2556  0.4664  1.0000  -2.6216   0.0000   0.0000   0.0000   0.3554
   8.500   2.0777   0.02731   0.01974  -0.2535  0.4623  1.0000  -2.6474   0.0000   0.0000   0.0000   0.3530
   8.750   2.1027   0.02764   0.02007  -0.2533  0.4592  1.0000  -2.6842   0.0000   0.0000   0.0000   0.3509
   9.000   2.1253   0.02813   0.02060  -0.2527  0.4561  1.0000  -2.7181   0.0000   0.0000   0.0000   0.3488
   9.250   2.1357   0.02884   0.02148  -0.2500  0.4522  1.0000  -2.7390   0.0000   0.0000   0.0000   0.3464
   9.500   2.1582   0.02923   0.02189  -0.2493  0.4490  1.0000  -2.7739   0.0000   0.0000   0.0000   0.3443
   9.750   2.1820   0.02965   0.02233  -0.2490  0.4458  1.0000  -2.8224   0.0000   0.0000   0.0000   0.3423
  10.000   2.1864   0.03046   0.02332  -0.2452  0.4416  1.0000  -2.8563   0.0000   0.0000   0.0000   0.3398
  10.250   2.2077   0.03087   0.02377  -0.2445  0.4384  1.0000  -2.9239   0.0000   0.0000   0.0000   0.3378
  10.500   2.2335   0.03131   0.02423  -0.2446  0.4355  1.0000  -2.9983   0.0000   0.0000   0.0000   0.3360
  10.750   2.2285   0.03233   0.02546  -0.2392  0.4316  1.0000  -3.0273   0.0000   0.0000   0.0000   0.3333
  11.000   2.2465   0.03272   0.02589  -0.2378  0.4279  1.0000  -3.0916   0.0000   0.0000   0.0000   0.3313
  11.250   2.2546   0.03335   0.02659  -0.2348  0.4236  1.0000  -3.1462   0.0000   0.0000   0.0000   0.3290
  11.500   2.2535   0.03414   0.02750  -0.2303  0.4186  1.0000  -3.1924   0.0000   0.0000   0.0000   0.3265
  11.750   2.2656   0.03459   0.02797  -0.2281  0.4137  1.0000  -3.2639   0.0000   0.0000   0.0000   0.3243
  12.000   2.2591   0.03578   0.02930  -0.2231  0.4087  1.0000  -3.3043   0.0000   0.0000   0.0000   0.3218
  12.250   2.2820   0.03599   0.02950  -0.2226  0.4045  1.0000  -3.4021   0.0000   0.0000   0.0000   0.3200
  12.500   2.2657   0.03792   0.03166  -0.2167  0.3999  1.0000  -3.4227   0.0000   0.0000   0.0000   0.3175
  12.750   2.2857   0.03829   0.03204  -0.2159  0.3959  1.0000  -3.5157   0.0000   0.0000   0.0000   0.3157
  13.000   2.2741   0.04028   0.03422  -0.2111  0.3913  1.0000  -3.5484   0.0000   0.0000   0.0000   0.3134
  13.250   2.2803   0.04133   0.03534  -0.2087  0.3867  1.0000  -3.6206   0.0000   0.0000   0.0000   0.3115
  13.500   2.2768   0.04309   0.03724  -0.2054  0.3821  1.0000  -3.6718   0.0000   0.0000   0.0000   0.3095
  13.750   2.2739   0.04488   0.03914  -0.2024  0.3772  1.0000  -3.7244   0.0000   0.0000   0.0000   0.3077
  14.000   2.2744   0.04658   0.04095  -0.1999  0.3725  1.0000  -3.7845   0.0000   0.0000   0.0000   0.3059
  14.250   2.2655   0.04904   0.04355  -0.1967  0.3674  1.0000  -3.8297   0.0000   0.0000   0.0000   0.3042
  14.500   2.2634   0.05112   0.04574  -0.1944  0.3624  1.0000  -3.9020   0.0000   0.0000   0.0000   0.3025
  14.750   2.2565   0.05369   0.04841  -0.1919  0.3569  1.0000  -3.9612   0.0000   0.0000   0.0000   0.3010
  15.000   2.2431   0.05708   0.05195  -0.1894  0.3513  1.0000  -4.0014   0.0000   0.0000   0.0000   0.2996
  15.250   2.2487   0.05868   0.05359  -0.1880  0.3457  1.0000  -4.0971   0.0000   0.0000   0.0000   0.2981
  15.500   2.2215   0.06391   0.05903  -0.1854  0.3394  1.0000  -4.0956   0.0000   0.0000   0.0000   0.2972
  15.750   2.2218   0.06629   0.06147  -0.1842  0.3337  1.0000  -4.1758   0.0000   0.0000   0.0000   0.2959
  16.000   2.2073   0.07049   0.06581  -0.1827  0.3272  1.0000  -4.2110   0.0000   0.0000   0.0000   0.2950
  16.250   2.1865   0.07572   0.07120  -0.1814  0.3205  1.0000  -4.2275   0.0000   0.0000   0.0000   0.2945
  16.500   2.1806   0.07917   0.07472  -0.1806  0.3139  1.0000  -4.2944   0.0000   0.0000   0.0000   0.2936
  16.750   2.1757   0.08255   0.07816  -0.1799  0.3070  1.0000  -4.3645   0.0000   0.0000   0.0000   0.2927
  17.000   2.1514   0.08874   0.08451  -0.1795  0.2991  1.0000  -4.3678   0.0000   0.0000   0.0000   0.2926
  17.250   2.1333   0.09422   0.09011  -0.1793  0.2912  1.0000  -4.3906   0.0000   0.0000   0.0000   0.2924
  17.500   2.1192   0.09925   0.09524  -0.1794  0.2830  1.0000  -4.4321   0.0000   0.0000   0.0000   0.2922
  17.750   2.1065   0.10412   0.10019  -0.1796  0.2744  1.0000  -4.5046   0.0000   0.0000   0.0000   0.2921
  18.000   2.0937   0.10908   0.10523  -0.1801  0.2654  1.0000  -4.5746   0.0000   0.0000   0.0000   0.2920
  18.250   2.0814   0.11401   0.11022  -0.1808  0.2558  1.0000  -4.6456   0.0000   0.0000   0.0000   0.2920
  18.500   2.0699   0.11885   0.11511  -0.1816  0.2457  1.0000  -4.7202   0.0000   0.0000   0.0000   0.2921
  18.750   2.0599   0.12345   0.11973  -0.1825  0.2351  1.0000  -4.8067   0.0000   0.0000   0.0000   0.2922
  19.000   2.0519   0.12772   0.12398  -0.1834  0.2242  1.0000  -4.9040   0.0000   0.0000   0.0000   0.2922
  19.250   2.0377   0.13307   0.12937  -0.1849  0.2126  1.0000  -4.9594   0.0000   0.0000   0.0000   0.2927
  19.500   2.0275   0.13773   0.13402  -0.1863  0.2010  1.0000  -5.0387   0.0000   0.0000   0.0000   0.2931
  19.750   2.0196   0.14195   0.13817  -0.1876  0.1898  1.0000  -5.1324   0.0000   0.0000   0.0000   0.2933
  20.000   2.0083   0.14682   0.14305  -0.1894  0.1786  1.0000  -5.2003   0.0000   0.0000   0.0000   0.2939
  20.250   2.0004   0.15106   0.14724  -0.1910  0.1683  1.0000  -5.2899   0.0000   0.0000   0.0000   0.2943
  20.500   1.9939   0.15504   0.15115  -0.1926  0.1589  1.0000  -5.3885   0.0000   0.0000   0.0000   0.2945
  21.000   1.9831   0.16261   0.15864  -0.1959  0.1418  1.0000  -5.5970   0.0000   0.0000   0.0000   0.2951
  21.250   1.9789   0.16617   0.16217  -0.1976  0.1343  1.0000  -5.7091   0.0000   0.0000   0.0000   0.2954
  21.500   1.9753   0.16966   0.16565  -0.1994  0.1272  1.0000  -5.8241   0.0000   0.0000   0.0000   0.2956
  21.750   1.9725   0.17299   0.16897  -0.2011  0.1206  1.0000  -5.9454   0.0000   0.0000   0.0000   0.2958
  22.000   1.9692   0.17646   0.17247  -0.2030  0.1143  1.0000  -6.0616   0.0000   0.0000   0.0000   0.2961
  22.250   1.9664   0.17980   0.17585  -0.2050  0.1084  1.0000  -6.1807   0.0000   0.0000   0.0000   0.2964
  22.500   1.9647   0.18293   0.17900  -0.2068  0.1029  1.0000  -6.3088   0.0000   0.0000   0.0000   0.2966
  22.750   1.9637   0.18589   0.18197  -0.2086  0.0978  1.0000  -6.4436   0.0000   0.0000   0.0000   0.2967
  23.000   1.9638   0.18861   0.18466  -0.2104  0.0930  1.0000  -6.5889   0.0000   0.0000   0.0000   0.2966
  23.250   1.9626   0.19165   0.18773  -0.2124  0.0884  1.0000  -6.7208   0.0000   0.0000   0.0000   0.2969
  23.500   1.9610   0.19475   0.19091  -0.2145  0.0840  1.0000  -6.8481   0.0000   0.0000   0.0000   0.2971
  23.750   1.9603   0.19764   0.19383  -0.2165  0.0799  1.0000  -6.9849   0.0000   0.0000   0.0000   0.2973
  24.000   1.9606   0.20029   0.19647  -0.2184  0.0760  1.0000  -7.1329   0.0000   0.0000   0.0000   0.2973
  24.250   1.9591   0.20332   0.19955  -0.2207  0.0722  1.0000  -7.2630   0.0000   0.0000   0.0000   0.2977
  24.500   1.9570   0.20650   0.20280  -0.2231  0.0685  1.0000  -7.3855   0.0000   0.0000   0.0000   0.2981
  24.750   1.9561   0.20940   0.20573  -0.2253  0.0651  1.0000  -7.5237   0.0000   0.0000   0.0000   0.2984


