xflr5 v6.59

 Calculated polar for: TKV2008

 1 1 Reynolds number fixed          Mach number fixed         

 xtrf =   1.000 (top)        1.000 (bottom)
 Mach =   0.000     Re =     0.900 e 6     Ncrit =   9.000

  alpha     CL        CD       CDp       Cm    Top Xtr Bot Xtr   Cpmin    Chinge    XCp    
 ------- -------- --------- --------- -------- ------- ------- -------- --------- ---------
 -17.500  -0.2150   0.19619   0.19429  -0.0432  0.9958  0.0073  -1.3768   0.0000   0.0000   0.0000  -0.0104
 -17.250  -0.1991   0.19297   0.19107  -0.0466  0.9945  0.0074  -1.3293   0.0000   0.0000   0.0000  -0.0479
 -17.000  -0.1819   0.18972   0.18782  -0.0505  0.9933  0.0074  -1.2925   0.0000   0.0000   0.0000  -0.0968
 -16.750  -0.1638   0.18640   0.18449  -0.0546  0.9924  0.0075  -1.2643   0.0000   0.0000   0.0000  -0.1599
 -16.500  -0.1451   0.18300   0.18109  -0.0589  0.9916  0.0076  -1.2417   0.0000   0.0000   0.0000  -0.2422
 -16.250  -0.1260   0.17954   0.17762  -0.0634  0.9910  0.0077  -1.2229   0.0000   0.0000   0.0000  -0.3525
 -16.000  -0.1122   0.17639   0.17447  -0.0661  0.9891  0.0078  -1.2106   0.0000   0.0000   0.0000  -0.4490
 -15.750  -0.0962   0.17308   0.17116  -0.0695  0.9878  0.0080  -1.1986   0.0000   0.0000   0.0000  -0.6005
 -15.500  -0.0787   0.16963   0.16771  -0.0733  0.9868  0.0081  -1.1869   0.0000   0.0000   0.0000  -0.8372
 -15.250  -0.0603   0.16609   0.16416  -0.0774  0.9860  0.0083  -1.1778   0.0000   0.0000   0.0000  -1.2360
 -15.000  -0.0411   0.16241   0.16048  -0.0818  0.9854  0.0085  -1.1739   0.0000   0.0000   0.0000  -2.0399
 -14.750  -0.0268   0.15905   0.15712  -0.0845  0.9834  0.0087  -1.1819   0.0000   0.0000   0.0000  -3.3535
 -14.500  -0.0110   0.15552   0.15359  -0.0878  0.9816  0.0087  -1.2031   0.0000   0.0000   0.0000  -8.8518
 -14.250   0.0072   0.15163   0.14969  -0.0921  0.9804  0.0088  -1.2393   0.0000   0.0000   0.0000  14.6989
 -11.250   0.3154   0.10340   0.10023  -0.1570  0.7475  0.0104  -1.0821   0.0000   0.0000   0.0000   0.7843
 -10.250   0.3321   0.09634   0.09290  -0.1604  0.7138  0.0107  -1.0763   0.0000   0.0000   0.0000   0.7681
 -10.000   0.3408   0.09444   0.09095  -0.1608  0.7019  0.0108  -1.0629   0.0000   0.0000   0.0000   0.7551
  -9.750   0.3497   0.09250   0.08896  -0.1612  0.6911  0.0110  -1.0572   0.0000   0.0000   0.0000   0.7428
  -9.500   0.3586   0.09053   0.08694  -0.1617  0.6815  0.0112  -1.0576   0.0000   0.0000   0.0000   0.7311
  -6.750   0.4502   0.06974   0.06595  -0.1643  0.6123  0.0130  -1.0614   0.0000   0.0000   0.0000   0.6318
  -6.500   0.4564   0.06798   0.06419  -0.1640  0.6075  0.0133  -1.0675   0.0000   0.0000   0.0000   0.6251
  -6.250   0.4572   0.06594   0.06215  -0.1635  0.6035  0.0137  -1.1838   0.0000   0.0000   0.0000   0.6226
  -6.000   0.4520   0.06414   0.06039  -0.1619  0.5994  0.0137  -1.3359   0.0000   0.0000   0.0000   0.6226
  -5.750   0.4595   0.06279   0.05903  -0.1605  0.5952  0.0138  -1.2448   0.0000   0.0000   0.0000   0.6126
  -5.500   0.4653   0.06147   0.05771  -0.1593  0.5914  0.0139  -1.1914   0.0000   0.0000   0.0000   0.6049
  -5.250   0.4730   0.05997   0.05623  -0.1590  0.5873  0.0141  -1.1579   0.0000   0.0000   0.0000   0.5978
  -5.000   0.4806   0.05840   0.05466  -0.1589  0.5834  0.0143  -1.1444   0.0000   0.0000   0.0000   0.5913
  -4.750   0.4882   0.05671   0.05297  -0.1590  0.5798  0.0147  -1.1498   0.0000   0.0000   0.0000   0.5854
  -4.500   0.4960   0.05432   0.05060  -0.1603  0.5762  0.0154  -1.2684   0.0000   0.0000   0.0000   0.5822
  -4.250   0.5077   0.05136   0.04764  -0.1634  0.5726  0.0155  -1.4112   0.0000   0.0000   0.0000   0.5801
  -4.000   0.5199   0.04999   0.04624  -0.1632  0.5690  0.0157  -1.3153   0.0000   0.0000   0.0000   0.5713
  -3.750   0.5364   0.04819   0.04447  -0.1647  0.5654  0.0159  -1.2538   0.0000   0.0000   0.0000   0.5636
  -2.250   0.9608   0.01356   0.00773  -0.2592  0.5425  0.0189  -2.1031   0.0000   0.0000   0.0000   0.5217
  -2.000   0.9990   0.01254   0.00641  -0.2617  0.5386  0.0188  -2.0233   0.0000   0.0000   0.0000   0.5133
  -1.750   1.0321   0.01205   0.00564  -0.2628  0.5350  0.0192  -1.9372   0.0000   0.0000   0.0000   0.5054
  -1.500   1.0625   0.01175   0.00538  -0.2635  0.5314  0.0200  -1.7577   0.0000   0.0000   0.0000   0.4983
  -1.250   1.0930   0.01148   0.00500  -0.2641  0.5276  0.0208  -1.6280   0.0000   0.0000   0.0000   0.4913
  -1.000   1.1229   0.01128   0.00471  -0.2646  0.5240  0.0217  -1.5195   0.0000   0.0000   0.0000   0.4848
  -0.750   1.1524   0.01114   0.00455  -0.2649  0.5204  0.0228  -1.5471   0.0000   0.0000   0.0000   0.4786
  -0.250   1.2102   0.01097   0.00431  -0.2654  0.5134  0.0259  -1.6017   0.0000   0.0000   0.0000   0.4671
   0.000   1.2387   0.01094   0.00426  -0.2656  0.5102  0.0280  -1.6304   0.0000   0.0000   0.0000   0.4617
   0.250   1.2673   0.01088   0.00421  -0.2658  0.5067  0.0307  -1.6592   0.0000   0.0000   0.0000   0.4565
   0.500   1.2950   0.01089   0.00419  -0.2658  0.5031  0.0342  -1.6875   0.0000   0.0000   0.0000   0.4516
   0.750   1.3225   0.01091   0.00420  -0.2657  0.4997  0.0404  -1.7157   0.0000   0.0000   0.0000   0.4468
   1.000   1.3519   0.01077   0.00422  -0.2662  0.4960  0.1011  -1.7452   0.0000   0.0000   0.0000   0.4423
   1.250   1.3794   0.01076   0.00435  -0.2663  0.4924  0.1926  -1.7737   0.0000   0.0000   0.0000   0.4380
   1.500   1.4054   0.01086   0.00447  -0.2660  0.4891  0.2225  -1.8011   0.0000   0.0000   0.0000   0.4337
   1.750   1.4320   0.01091   0.00456  -0.2658  0.4857  0.2458  -1.8295   0.0000   0.0000   0.0000   0.4296
   2.000   1.4577   0.01099   0.00466  -0.2654  0.4823  0.2714  -1.8592   0.0000   0.0000   0.0000   0.4256
   2.250   1.4828   0.01110   0.00481  -0.2650  0.4790  0.3153  -1.8893   0.0000   0.0000   0.0000   0.4217
   2.500   1.5104   0.01104   0.00498  -0.2651  0.4755  0.4340  -1.9214   0.0000   0.0000   0.0000   0.4181
   2.750   1.5372   0.01093   0.00527  -0.2651  0.4717  0.6828  -1.9532   0.0000   0.0000   0.0000   0.4146
   3.000   1.5575   0.01085   0.00550  -0.2636  0.4684  0.8837  -1.9799   0.0000   0.0000   0.0000   0.4109
   3.250   1.5831   0.01087   0.00557  -0.2632  0.4650  1.0000  -2.0108   0.0000   0.0000   0.0000   0.4075
   3.500   1.6079   0.01103   0.00569  -0.2627  0.4615  1.0000  -2.0410   0.0000   0.0000   0.0000   0.4041
   3.750   1.6315   0.01124   0.00585  -0.2619  0.4582  1.0000  -2.0704   0.0000   0.0000   0.0000   0.4008
   4.000   1.6562   0.01140   0.00599  -0.2614  0.4550  1.0000  -2.1006   0.0000   0.0000   0.0000   0.3976
   4.250   1.6806   0.01156   0.00614  -0.2608  0.4515  1.0000  -2.1307   0.0000   0.0000   0.0000   0.3945
   4.500   1.7038   0.01177   0.00631  -0.2600  0.4483  1.0000  -2.1599   0.0000   0.0000   0.0000   0.3914
   4.750   1.7274   0.01197   0.00649  -0.2593  0.4453  1.0000  -2.1893   0.0000   0.0000   0.0000   0.3885
   5.000   1.7514   0.01213   0.00666  -0.2587  0.4420  1.0000  -2.2191   0.0000   0.0000   0.0000   0.3856
   5.250   1.7742   0.01235   0.00686  -0.2579  0.4388  1.0000  -2.2481   0.0000   0.0000   0.0000   0.3827
   5.500   1.7963   0.01261   0.00709  -0.2569  0.4358  1.0000  -2.2794   0.0000   0.0000   0.0000   0.3799
   5.750   1.8199   0.01277   0.00728  -0.2563  0.4323  1.0000  -2.3128   0.0000   0.0000   0.0000   0.3772
   6.000   1.8418   0.01301   0.00750  -0.2553  0.4287  1.0000  -2.3448   0.0000   0.0000   0.0000   0.3745
   6.250   1.8628   0.01330   0.00777  -0.2542  0.4253  1.0000  -2.3761   0.0000   0.0000   0.0000   0.3719
   6.500   1.8858   0.01349   0.00799  -0.2535  0.4219  1.0000  -2.4091   0.0000   0.0000   0.0000   0.3693
   6.750   1.9072   0.01376   0.00826  -0.2525  0.4185  1.0000  -2.4407   0.0000   0.0000   0.0000   0.3668
   7.000   1.9269   0.01411   0.00858  -0.2512  0.4155  1.0000  -2.4727   0.0000   0.0000   0.0000   0.3642
   7.250   1.9494   0.01432   0.00883  -0.2504  0.4124  1.0000  -2.5074   0.0000   0.0000   0.0000   0.3618
   7.500   1.9702   0.01460   0.00913  -0.2493  0.4092  1.0000  -2.5406   0.0000   0.0000   0.0000   0.3594
   7.750   1.9891   0.01497   0.00949  -0.2479  0.4060  1.0000  -2.5720   0.0000   0.0000   0.0000   0.3570
   8.000   2.0099   0.01526   0.00982  -0.2469  0.4029  1.0000  -2.6052   0.0000   0.0000   0.0000   0.3546
   8.250   2.0303   0.01556   0.01015  -0.2458  0.3996  1.0000  -2.6381   0.0000   0.0000   0.0000   0.3523
   8.500   2.0487   0.01595   0.01055  -0.2444  0.3965  1.0000  -2.6691   0.0000   0.0000   0.0000   0.3500
   8.750   2.0676   0.01634   0.01095  -0.2431  0.3935  1.0000  -2.7005   0.0000   0.0000   0.0000   0.3478
   9.000   2.0872   0.01667   0.01133  -0.2419  0.3901  1.0000  -2.7327   0.0000   0.0000   0.0000   0.3456
   9.250   2.1037   0.01715   0.01181  -0.2402  0.3861  1.0000  -2.7619   0.0000   0.0000   0.0000   0.3433
   9.500   2.1217   0.01756   0.01226  -0.2388  0.3816  1.0000  -2.7927   0.0000   0.0000   0.0000   0.3411
   9.750   2.1381   0.01805   0.01277  -0.2372  0.3771  1.0000  -2.8219   0.0000   0.0000   0.0000   0.3389
  10.000   2.1538   0.01859   0.01333  -0.2355  0.3732  1.0000  -2.8503   0.0000   0.0000   0.0000   0.3368
  10.250   2.1708   0.01907   0.01385  -0.2341  0.3686  1.0000  -2.9043   0.0000   0.0000   0.0000   0.3347
  10.500   2.1837   0.01976   0.01455  -0.2320  0.3644  1.0000  -2.9601   0.0000   0.0000   0.0000   0.3325
  10.750   2.2002   0.02028   0.01513  -0.2305  0.3597  1.0000  -3.0214   0.0000   0.0000   0.0000   0.3305
  11.000   2.2115   0.02111   0.01596  -0.2283  0.3552  1.0000  -3.0752   0.0000   0.0000   0.0000   0.3284
  11.250   2.2271   0.02170   0.01662  -0.2268  0.3506  1.0000  -3.1358   0.0000   0.0000   0.0000   0.3264
  11.500   2.2385   0.02256   0.01750  -0.2248  0.3462  1.0000  -3.1978   0.0000   0.0000   0.0000   0.3244
  11.750   2.2516   0.02334   0.01834  -0.2230  0.3420  1.0000  -3.2720   0.0000   0.0000   0.0000   0.3224
  12.000   2.2621   0.02430   0.01933  -0.2210  0.3371  1.0000  -3.3446   0.0000   0.0000   0.0000   0.3205
  12.250   2.2727   0.02529   0.02037  -0.2190  0.3319  1.0000  -3.4178   0.0000   0.0000   0.0000   0.3185
  12.500   2.2805   0.02651   0.02161  -0.2168  0.3266  1.0000  -3.4860   0.0000   0.0000   0.0000   0.3166
  12.750   2.2905   0.02762   0.02278  -0.2150  0.3215  1.0000  -3.5616   0.0000   0.0000   0.0000   0.3148
  13.000   2.2958   0.02912   0.02431  -0.2127  0.3164  1.0000  -3.6315   0.0000   0.0000   0.0000   0.3129
  13.250   2.3051   0.03038   0.02563  -0.2110  0.3112  1.0000  -3.7102   0.0000   0.0000   0.0000   0.3112
  13.500   2.3087   0.03215   0.02743  -0.2089  0.3060  1.0000  -3.7770   0.0000   0.0000   0.0000   0.3095
  13.750   2.3149   0.03377   0.02911  -0.2071  0.3004  1.0000  -3.8503   0.0000   0.0000   0.0000   0.3078
  14.000   2.3176   0.03576   0.03114  -0.2051  0.2947  1.0000  -3.9343   0.0000   0.0000   0.0000   0.3062
  14.250   2.3179   0.03805   0.03347  -0.2030  0.2882  1.0000  -4.0142   0.0000   0.0000   0.0000   0.3046
  14.500   2.3194   0.04030   0.03578  -0.2013  0.2814  1.0000  -4.0982   0.0000   0.0000   0.0000   0.3031
  14.750   2.3175   0.04296   0.03849  -0.1994  0.2744  1.0000  -4.1771   0.0000   0.0000   0.0000   0.3017
  15.000   2.3126   0.04605   0.04161  -0.1975  0.2666  1.0000  -4.2502   0.0000   0.0000   0.0000   0.3003
  15.250   2.3045   0.04957   0.04516  -0.1956  0.2581  1.0000  -4.3139   0.0000   0.0000   0.0000   0.2991
  15.500   2.2941   0.05348   0.04911  -0.1938  0.2491  1.0000  -4.3701   0.0000   0.0000   0.0000   0.2980
  15.750   2.2817   0.05776   0.05341  -0.1922  0.2389  1.0000  -4.4198   0.0000   0.0000   0.0000   0.2970
  16.000   2.2653   0.06265   0.05832  -0.1906  0.2277  1.0000  -4.4565   0.0000   0.0000   0.0000   0.2961
  16.250   2.2457   0.06811   0.06380  -0.1892  0.2168  1.0000  -4.4819   0.0000   0.0000   0.0000   0.2955
  16.500   2.2254   0.07382   0.06952  -0.1880  0.2061  1.0000  -4.5044   0.0000   0.0000   0.0000   0.2950
  16.750   2.2048   0.07971   0.07543  -0.1871  0.1940  1.0000  -4.5248   0.0000   0.0000   0.0000   0.2946
  17.000   2.1822   0.08603   0.08175  -0.1865  0.1820  1.0000  -4.5404   0.0000   0.0000   0.0000   0.2944
  17.250   2.1597   0.09247   0.08819  -0.1861  0.1702  1.0000  -4.5727   0.0000   0.0000   0.0000   0.2943
  17.500   2.1380   0.09888   0.09460  -0.1861  0.1593  1.0000  -4.6080   0.0000   0.0000   0.0000   0.2944
  17.750   2.1184   0.10507   0.10080  -0.1863  0.1496  1.0000  -4.6514   0.0000   0.0000   0.0000   0.2945
  18.000   2.1022   0.11076   0.10651  -0.1867  0.1407  1.0000  -4.7113   0.0000   0.0000   0.0000   0.2946
  18.250   2.0888   0.11608   0.11184  -0.1873  0.1328  1.0000  -4.7839   0.0000   0.0000   0.0000   0.2947
  18.500   2.0771   0.12113   0.11691  -0.1880  0.1251  1.0000  -4.8644   0.0000   0.0000   0.0000   0.2948
  18.750   2.0664   0.12602   0.12182  -0.1888  0.1183  1.0000  -4.9492   0.0000   0.0000   0.0000   0.2949
  19.000   2.0572   0.13069   0.12650  -0.1898  0.1119  1.0000  -5.0408   0.0000   0.0000   0.0000   0.2950
  19.250   2.0489   0.13518   0.13101  -0.1909  0.1056  1.0000  -5.1375   0.0000   0.0000   0.0000   0.2951
  19.500   2.0408   0.13964   0.13548  -0.1921  0.1000  1.0000  -5.2338   0.0000   0.0000   0.0000   0.2953
  19.750   2.0353   0.14366   0.13952  -0.1933  0.0946  1.0000  -5.3462   0.0000   0.0000   0.0000   0.2953
  20.000   2.0309   0.14751   0.14340  -0.1945  0.0894  1.0000  -5.4654   0.0000   0.0000   0.0000   0.2953
  20.250   2.0266   0.15131   0.14722  -0.1959  0.0846  1.0000  -5.5850   0.0000   0.0000   0.0000   0.2954
  20.500   2.0227   0.15502   0.15096  -0.1972  0.0800  1.0000  -5.7072   0.0000   0.0000   0.0000   0.2954
  20.750   2.0183   0.15880   0.15476  -0.1987  0.0754  1.0000  -5.8257   0.0000   0.0000   0.0000   0.2956
  21.000   2.0136   0.16262   0.15860  -0.2004  0.0713  1.0000  -5.9413   0.0000   0.0000   0.0000   0.2958
  21.250   2.0108   0.16609   0.16209  -0.2019  0.0668  1.0000  -6.0711   0.0000   0.0000   0.0000   0.2959
  21.500   2.0076   0.16960   0.16561  -0.2036  0.0625  1.0000  -6.1983   0.0000   0.0000   0.0000   0.2960
  21.750   2.0048   0.17307   0.16910  -0.2053  0.0585  1.0000  -6.3276   0.0000   0.0000   0.0000   0.2962
  22.000   2.0025   0.17642   0.17247  -0.2070  0.0548  1.0000  -6.4609   0.0000   0.0000   0.0000   0.2963
  22.250   2.0001   0.17975   0.17583  -0.2088  0.0516  1.0000  -6.5943   0.0000   0.0000   0.0000   0.2965
  22.500   1.9979   0.18304   0.17915  -0.2106  0.0486  1.0000  -6.7289   0.0000   0.0000   0.0000   0.2967
  22.750   1.9964   0.18621   0.18233  -0.2125  0.0455  1.0000  -6.8707   0.0000   0.0000   0.0000   0.2968
  23.000   1.9946   0.18939   0.18555  -0.2144  0.0429  1.0000  -7.0179   0.0000   0.0000   0.0000   0.2970
  23.250   1.9936   0.19243   0.18862  -0.2162  0.0404  1.0000  -7.1722   0.0000   0.0000   0.0000   0.2971
  23.500   1.9921   0.19551   0.19174  -0.2182  0.0382  1.0000  -7.3228   0.0000   0.0000   0.0000   0.2972
  24.000   1.9894   0.20162   0.19792  -0.2223  0.0337  1.0000  -7.6266   0.0000   0.0000   0.0000   0.2976
  24.250   1.9879   0.20465   0.20098  -0.2244  0.0315  1.0000  -7.7783   0.0000   0.0000   0.0000   0.2979
  24.500   1.9865   0.20768   0.20404  -0.2266  0.0294  1.0000  -7.9305   0.0000   0.0000   0.0000   0.2981
  24.750   1.9848   0.21075   0.20714  -0.2288  0.0275  1.0000  -8.0792   0.0000   0.0000   0.0000   0.2984
  25.000   1.9832   0.21376   0.21019  -0.2311  0.0256  1.0000  -8.2297   0.0000   0.0000   0.0000   0.2987


