xflr5 v6.59

 Calculated polar for: TKV2008

 1 1 Reynolds number fixed          Mach number fixed         

 xtrf =   1.000 (top)        1.000 (bottom)
 Mach =   0.000     Re =     0.260 e 6     Ncrit =   9.000

  alpha     CL        CD       CDp       Cm    Top Xtr Bot Xtr   Cpmin    Chinge    XCp    
 ------- -------- --------- --------- -------- ------- ------- -------- --------- ---------
 -25.000  -0.4653   0.26891   0.26508   0.0026  1.0000  0.0115  -1.3152   0.0000   0.0000   0.0000   0.2141
 -24.750  -0.4579   0.26676   0.26294   0.0011  1.0000  0.0116  -1.3066   0.0000   0.0000   0.0000   0.2108
 -24.500  -0.4506   0.26460   0.26079  -0.0004  1.0000  0.0117  -1.3044   0.0000   0.0000   0.0000   0.2075
 -24.250  -0.4432   0.26244   0.25863  -0.0019  1.0000  0.0118  -1.3042   0.0000   0.0000   0.0000   0.2040
 -24.000  -0.4357   0.26025   0.25644  -0.0034  1.0000  0.0119  -1.3050   0.0000   0.0000   0.0000   0.2004
 -23.000  -0.4061   0.25139   0.24762  -0.0093  1.0000  0.0120  -1.3353   0.0000   0.0000   0.0000   0.1850
 -22.750  -0.3989   0.24921   0.24545  -0.0105  1.0000  0.0121  -1.3137   0.0000   0.0000   0.0000   0.1814
 -22.500  -0.3916   0.24707   0.24332  -0.0118  1.0000  0.0122  -1.2984   0.0000   0.0000   0.0000   0.1775
 -22.250  -0.3842   0.24493   0.24119  -0.0131  1.0000  0.0123  -1.2866   0.0000   0.0000   0.0000   0.1735
 -22.000  -0.3769   0.24281   0.23909  -0.0143  1.0000  0.0124  -1.2766   0.0000   0.0000   0.0000   0.1693
 -21.750  -0.3695   0.24065   0.23694  -0.0156  1.0000  0.0126  -1.2674   0.0000   0.0000   0.0000   0.1650
 -21.500  -0.3621   0.23848   0.23478  -0.0168  1.0000  0.0127  -1.2590   0.0000   0.0000   0.0000   0.1606
 -21.250  -0.3547   0.23629   0.23260  -0.0180  1.0000  0.0129  -1.2513   0.0000   0.0000   0.0000   0.1560
 -21.000  -0.3474   0.23410   0.23042  -0.0192  1.0000  0.0130  -1.2442   0.0000   0.0000   0.0000   0.1513
 -20.750  -0.3401   0.23189   0.22822  -0.0203  1.0000  0.0132  -1.2374   0.0000   0.0000   0.0000   0.1465
 -20.500  -0.3328   0.22967   0.22603  -0.0214  1.0000  0.0133  -1.2346   0.0000   0.0000   0.0000   0.1416
 -18.750  -0.2834   0.21399   0.21045  -0.0284  1.0000  0.0138  -1.2730   0.0000   0.0000   0.0000   0.1031
 -18.500  -0.2767   0.21180   0.20829  -0.0292  1.0000  0.0139  -1.2512   0.0000   0.0000   0.0000   0.0977
 -18.250  -0.2700   0.20967   0.20617  -0.0299  1.0000  0.0140  -1.2344   0.0000   0.0000   0.0000   0.0920
 -18.000  -0.2634   0.20752   0.20404  -0.0306  1.0000  0.0142  -1.2209   0.0000   0.0000   0.0000   0.0861
 -17.750  -0.2568   0.20538   0.20193  -0.0313  1.0000  0.0143  -1.2101   0.0000   0.0000   0.0000   0.0801
 -17.500  -0.2505   0.20323   0.19981  -0.0320  1.0000  0.0145  -1.2011   0.0000   0.0000   0.0000   0.0740
 -17.250  -0.2442   0.20109   0.19769  -0.0326  1.0000  0.0147  -1.1947   0.0000   0.0000   0.0000   0.0679
 -15.250  -0.2040   0.18453   0.18137  -0.0350  1.0000  0.0155  -1.2632   0.0000   0.0000   0.0000   0.0278
 -15.000  -0.2009   0.18270   0.17959  -0.0346  1.0000  0.0156  -1.2416   0.0000   0.0000   0.0000   0.0274
 -14.750  -0.1882   0.17988   0.17678  -0.0370  0.9990  0.0158  -1.2187   0.0000   0.0000   0.0000   0.0000
 -14.500  -0.1664   0.17613   0.17302  -0.0421  0.9969  0.0160  -1.1951   0.0000   0.0000   0.0000  -0.0632
 -14.250  -0.1452   0.17231   0.16920  -0.0469  0.9944  0.0163  -1.1766   0.0000   0.0000   0.0000  -0.1426
 -14.000  -0.1238   0.16853   0.16540  -0.0519  0.9920  0.0167  -1.1616   0.0000   0.0000   0.0000  -0.2504
 -13.750  -0.1027   0.16471   0.16157  -0.0567  0.9894  0.0170  -1.1543   0.0000   0.0000   0.0000  -0.4006
 -13.000  -0.0415   0.15315   0.14999  -0.0706  0.9808  0.0174  -1.1690   0.0000   0.0000   0.0000  -1.6958
 -12.750  -0.0198   0.14938   0.14622  -0.0753  0.9789  0.0177  -1.1390   0.0000   0.0000   0.0000  -4.0528
 -12.500  -0.0013   0.14571   0.14255  -0.0790  0.9743  0.0180  -1.1226   0.0000   0.0000   0.0000  -70.0782
 -11.000   0.0927   0.12508   0.12194  -0.0963  0.9211  0.0194  -1.1145   0.0000   0.0000   0.0000   1.3913
 -10.750   0.1112   0.12155   0.11840  -0.0995  0.9097  0.0198  -1.0835   0.0000   0.0000   0.0000   1.2295
 -10.500   0.1348   0.11761   0.11442  -0.1044  0.8990  0.0202  -1.0609   0.0000   0.0000   0.0000   1.0940
  -9.750   0.2467   0.10279   0.09932  -0.1313  0.8703  0.0218  -1.0316   0.0000   0.0000   0.0000   0.8220
  -9.500   0.2999   0.09723   0.09359  -0.1447  0.8564  0.0226  -1.0044   0.0000   0.0000   0.0000   0.7663
  -9.250   0.3441   0.09255   0.08867  -0.1561  0.8348  0.0232  -1.0362   0.0000   0.0000   0.0000   0.7338
  -9.000   0.3701   0.08937   0.08527  -0.1613  0.8106  0.0235  -1.0150   0.0000   0.0000   0.0000   0.7135
  -8.750   0.3859   0.08715   0.08288  -0.1632  0.7904  0.0239  -0.9959   0.0000   0.0000   0.0000   0.6990
  -8.500   0.3979   0.08519   0.08079  -0.1643  0.7745  0.0245  -1.0053   0.0000   0.0000   0.0000   0.6877
  -8.250   0.4078   0.08332   0.07883  -0.1651  0.7611  0.0250  -1.0129   0.0000   0.0000   0.0000   0.6782
  -8.000   0.4159   0.08154   0.07696  -0.1660  0.7494  0.0254  -1.0184   0.0000   0.0000   0.0000   0.6714
  -7.750   0.4257   0.07960   0.07494  -0.1664  0.7394  0.0257  -1.0273   0.0000   0.0000   0.0000   0.6621
  -7.500   0.4352   0.07785   0.07315  -0.1663  0.7295  0.0261  -1.0369   0.0000   0.0000   0.0000   0.6523
  -7.250   0.4441   0.07613   0.07139  -0.1665  0.7207  0.0267  -1.0451   0.0000   0.0000   0.0000   0.6439
  -7.000   0.4529   0.07437   0.06957  -0.1671  0.7132  0.0275  -1.0521   0.0000   0.0000   0.0000   0.6368
  -6.750   0.4577   0.07272   0.06792  -0.1675  0.7054  0.0278  -1.0550   0.0000   0.0000   0.0000   0.6331
  -6.500   0.4691   0.07090   0.06606  -0.1672  0.6986  0.0284  -1.0665   0.0000   0.0000   0.0000   0.6224
  -6.250   0.4775   0.06928   0.06441  -0.1672  0.6919  0.0293  -1.0750   0.0000   0.0000   0.0000   0.6151
  -6.000   0.4809   0.06776   0.06289  -0.1673  0.6858  0.0301  -1.0776   0.0000   0.0000   0.0000   0.6120
  -5.750   0.4884   0.06606   0.06118  -0.1668  0.6798  0.0305  -1.0859   0.0000   0.0000   0.0000   0.6047
  -5.500   0.4958   0.06463   0.05973  -0.1661  0.6742  0.0311  -1.0943   0.0000   0.0000   0.0000   0.5975
  -5.250   0.5036   0.06308   0.05818  -0.1663  0.6686  0.0320  -1.1013   0.0000   0.0000   0.0000   0.5918
  -5.000   0.5139   0.06117   0.05624  -0.1694  0.6639  0.0328  -1.1054   0.0000   0.0000   0.0000   0.5904
  -4.750   0.5247   0.05952   0.05461  -0.1684  0.6582  0.0333  -1.1172   0.0000   0.0000   0.0000   0.5807
  -4.500   0.5398   0.05771   0.05274  -0.1701  0.6536  0.0345  -1.1285   0.0000   0.0000   0.0000   0.5741
  -4.250   0.5552   0.05544   0.05050  -0.1742  0.6483  0.0355  -1.1353   0.0000   0.0000   0.0000   0.5718
  -4.000   0.5701   0.05378   0.04881  -0.1742  0.6435  0.0364  -1.1498   0.0000   0.0000   0.0000   0.5630
  -3.750   0.5984   0.05090   0.04588  -0.1819  0.6391  0.0383  -1.1637   0.0000   0.0000   0.0000   0.5605
  -3.500   0.6123   0.04943   0.04442  -0.1812  0.6342  0.0393  -1.1782   0.0000   0.0000   0.0000   0.5517
  -3.250   0.6454   0.04656   0.04147  -0.1884  0.6301  0.0417  -1.1974   0.0000   0.0000   0.0000   0.5469
  -3.000   0.6805   0.04373   0.03859  -0.1955  0.6255  0.0447  -1.2181   0.0000   0.0000   0.0000   0.5416
  -2.750   0.7218   0.04064   0.03543  -0.2038  0.6207  0.0481  -1.2426   0.0000   0.0000   0.0000   0.5358
  -2.500   0.7679   0.03764   0.03226  -0.2122  0.6168  0.0518  -1.2716   0.0000   0.0000   0.0000   0.5291
  -2.250   0.8090   0.03493   0.02950  -0.2188  0.6118  0.0560  -1.2986   0.0000   0.0000   0.0000   0.5226
  -2.000   0.8689   0.03152   0.02584  -0.2298  0.6073  0.0640  -1.3367   0.0000   0.0000   0.0000   0.5160
  -1.250   1.0706   0.01942   0.01173  -0.2611  0.5945  0.0448  -1.4656   0.0000   0.0000   0.0000   0.4938
  -1.000   1.1075   0.01853   0.01045  -0.2630  0.5904  0.0443  -1.4955   0.0000   0.0000   0.0000   0.4869
  -0.750   1.1391   0.01793   0.00972  -0.2638  0.5858  0.0453  -1.5229   0.0000   0.0000   0.0000   0.4806
  -0.500   1.1719   0.01751   0.00911  -0.2648  0.5821  0.0469  -1.5521   0.0000   0.0000   0.0000   0.4744
  -0.250   1.2015   0.01723   0.00880  -0.2651  0.5780  0.0501  -1.5801   0.0000   0.0000   0.0000   0.4687
   0.000   1.2313   0.01698   0.00854  -0.2655  0.5738  0.0535  -1.6085   0.0000   0.0000   0.0000   0.4632
   0.250   1.2631   0.01683   0.00834  -0.2664  0.5703  0.0599  -1.6388   0.0000   0.0000   0.0000   0.4579
   0.500   1.2925   0.01672   0.00830  -0.2668  0.5660  0.0703  -1.6671   0.0000   0.0000   0.0000   0.4530
   0.750   1.3253   0.01640   0.00833  -0.2681  0.5617  0.1913  -1.6978   0.0000   0.0000   0.0000   0.4484
   1.000   1.3548   0.01652   0.00845  -0.2685  0.5582  0.2709  -1.7273   0.0000   0.0000   0.0000   0.4439
   1.250   1.3806   0.01664   0.00865  -0.2682  0.5541  0.3118  -1.7541   0.0000   0.0000   0.0000   0.4395
   1.500   1.4081   0.01670   0.00883  -0.2683  0.5502  0.3695  -1.7827   0.0000   0.0000   0.0000   0.4353
   1.750   1.4394   0.01662   0.00908  -0.2693  0.5469  0.5287  -1.8146   0.0000   0.0000   0.0000   0.4313
   2.000   1.4553   0.01621   0.00928  -0.2665  0.5433  1.0000  -1.8371   0.0000   0.0000   0.0000   0.4269
   2.250   1.4817   0.01644   0.00940  -0.2663  0.5392  1.0000  -1.8675   0.0000   0.0000   0.0000   0.4230
   2.500   1.5103   0.01666   0.00947  -0.2665  0.5358  1.0000  -1.9001   0.0000   0.0000   0.0000   0.4193
   2.750   1.5362   0.01693   0.00967  -0.2662  0.5320  1.0000  -1.9301   0.0000   0.0000   0.0000   0.4157
   3.000   1.5616   0.01717   0.00987  -0.2658  0.5280  1.0000  -1.9599   0.0000   0.0000   0.0000   0.4121
   3.250   1.5896   0.01741   0.01000  -0.2660  0.5248  1.0000  -1.9922   0.0000   0.0000   0.0000   0.4088
   3.500   1.6157   0.01770   0.01024  -0.2658  0.5213  1.0000  -2.0227   0.0000   0.0000   0.0000   0.4055
   3.750   1.6397   0.01796   0.01050  -0.2652  0.5173  1.0000  -2.0514   0.0000   0.0000   0.0000   0.4022
   4.000   1.6668   0.01820   0.01066  -0.2652  0.5139  1.0000  -2.0831   0.0000   0.0000   0.0000   0.3991
   4.250   1.6932   0.01850   0.01091  -0.2650  0.5106  1.0000  -2.1141   0.0000   0.0000   0.0000   0.3960
   4.500   1.7156   0.01878   0.01123  -0.2641  0.5065  1.0000  -2.1415   0.0000   0.0000   0.0000   0.3930
   4.750   1.7419   0.01903   0.01142  -0.2640  0.5030  1.0000  -2.1727   0.0000   0.0000   0.0000   0.3901
   5.000   1.7684   0.01933   0.01167  -0.2639  0.4998  1.0000  -2.2050   0.0000   0.0000   0.0000   0.3873
   5.250   1.7895   0.01965   0.01205  -0.2628  0.4958  1.0000  -2.2351   0.0000   0.0000   0.0000   0.3844
   5.500   1.8148   0.01992   0.01230  -0.2625  0.4924  1.0000  -2.2695   0.0000   0.0000   0.0000   0.3817
   5.750   1.8428   0.02022   0.01252  -0.2628  0.4895  1.0000  -2.3064   0.0000   0.0000   0.0000   0.3792
   6.000   1.8615   0.02058   0.01299  -0.2613  0.4855  1.0000  -2.3343   0.0000   0.0000   0.0000   0.3764
   6.250   1.8856   0.02088   0.01329  -0.2608  0.4821  1.0000  -2.3676   0.0000   0.0000   0.0000   0.3739
   6.500   1.9138   0.02118   0.01351  -0.2611  0.4793  1.0000  -2.4051   0.0000   0.0000   0.0000   0.3715
   6.750   1.9320   0.02159   0.01404  -0.2595  0.4755  1.0000  -2.4334   0.0000   0.0000   0.0000   0.3689
   7.000   1.9539   0.02192   0.01440  -0.2587  0.4719  1.0000  -2.4668   0.0000   0.0000   0.0000   0.3664
   7.250   1.9810   0.02220   0.01463  -0.2588  0.4689  1.0000  -2.5057   0.0000   0.0000   0.0000   0.3642
   7.500   1.9988   0.02264   0.01516  -0.2572  0.4651  1.0000  -2.5350   0.0000   0.0000   0.0000   0.3617
   7.750   2.0187   0.02301   0.01559  -0.2560  0.4614  1.0000  -2.5666   0.0000   0.0000   0.0000   0.3593
   8.000   2.0452   0.02330   0.01584  -0.2560  0.4584  1.0000  -2.6051   0.0000   0.0000   0.0000   0.3571
   8.250   2.0616   0.02378   0.01641  -0.2542  0.4546  1.0000  -2.6331   0.0000   0.0000   0.0000   0.3547
   8.500   2.0793   0.02420   0.01692  -0.2527  0.4510  1.0000  -2.6626   0.0000   0.0000   0.0000   0.3524
   8.750   2.1049   0.02454   0.01723  -0.2526  0.4480  1.0000  -2.7001   0.0000   0.0000   0.0000   0.3503
   9.000   2.1225   0.02504   0.01783  -0.2511  0.4448  1.0000  -2.7292   0.0000   0.0000   0.0000   0.3481
   9.250   2.1355   0.02555   0.01844  -0.2487  0.4411  1.0000  -2.7539   0.0000   0.0000   0.0000   0.3457
   9.500   2.1585   0.02589   0.01879  -0.2482  0.4379  1.0000  -2.7890   0.0000   0.0000   0.0000   0.3436
   9.750   2.1746   0.02640   0.01936  -0.2464  0.4345  1.0000  -2.8219   0.0000   0.0000   0.0000   0.3414
  10.000   2.1823   0.02700   0.02010  -0.2431  0.4308  1.0000  -2.8596   0.0000   0.0000   0.0000   0.3390
  10.250   2.2040   0.02741   0.02052  -0.2424  0.4277  1.0000  -2.9277   0.0000   0.0000   0.0000   0.3370
  10.500   2.2234   0.02793   0.02109  -0.2413  0.4246  1.0000  -2.9928   0.0000   0.0000   0.0000   0.3350
  10.750   2.2244   0.02873   0.02205  -0.2370  0.4206  1.0000  -3.0313   0.0000   0.0000   0.0000   0.3324
  11.000   2.2441   0.02904   0.02235  -0.2359  0.4164  1.0000  -3.0985   0.0000   0.0000   0.0000   0.3304
  11.250   2.2408   0.02999   0.02345  -0.2310  0.4116  1.0000  -3.1321   0.0000   0.0000   0.0000   0.3279
  11.500   2.2513   0.03052   0.02400  -0.2285  0.4066  1.0000  -3.1990   0.0000   0.0000   0.0000   0.3257
  11.750   2.2504   0.03159   0.02520  -0.2244  0.4018  1.0000  -3.2461   0.0000   0.0000   0.0000   0.3233
  12.000   2.2571   0.03244   0.02612  -0.2215  0.3972  1.0000  -3.3110   0.0000   0.0000   0.0000   0.3211
  12.250   2.2666   0.03332   0.02708  -0.2193  0.3933  1.0000  -3.3820   0.0000   0.0000   0.0000   0.3191
  12.500   2.2658   0.03467   0.02858  -0.2156  0.3889  1.0000  -3.4331   0.0000   0.0000   0.0000   0.3169
  12.750   2.2845   0.03515   0.02903  -0.2147  0.3848  1.0000  -3.5237   0.0000   0.0000   0.0000   0.3151
  13.000   2.2714   0.03726   0.03137  -0.2099  0.3799  1.0000  -3.5534   0.0000   0.0000   0.0000   0.3129
  13.250   2.2822   0.03818   0.03231  -0.2081  0.3756  1.0000  -3.6355   0.0000   0.0000   0.0000   0.3110
  13.500   2.2741   0.04033   0.03464  -0.2044  0.3707  1.0000  -3.6764   0.0000   0.0000   0.0000   0.3091
  13.750   2.2793   0.04171   0.03608  -0.2023  0.3661  1.0000  -3.7467   0.0000   0.0000   0.0000   0.3073
  14.000   2.2730   0.04401   0.03854  -0.1993  0.3612  1.0000  -3.7913   0.0000   0.0000   0.0000   0.3056
  14.250   2.2748   0.04577   0.04036  -0.1972  0.3561  1.0000  -3.8670   0.0000   0.0000   0.0000   0.3039
  14.500   2.2649   0.04867   0.04341  -0.1944  0.3506  1.0000  -3.9172   0.0000   0.0000   0.0000   0.3024
  14.750   2.2689   0.05043   0.04520  -0.1928  0.3454  1.0000  -4.0078   0.0000   0.0000   0.0000   0.3008
  15.000   2.2531   0.05424   0.04921  -0.1902  0.3395  1.0000  -4.0406   0.0000   0.0000   0.0000   0.2995
  15.250   2.2533   0.05657   0.05159  -0.1887  0.3341  1.0000  -4.1207   0.0000   0.0000   0.0000   0.2981
  15.500   2.2402   0.06046   0.05564  -0.1868  0.3279  1.0000  -4.1610   0.0000   0.0000   0.0000   0.2970
  15.750   2.2307   0.06413   0.05944  -0.1853  0.3218  1.0000  -4.2117   0.0000   0.0000   0.0000   0.2960
  16.000   2.2297   0.06684   0.06218  -0.1842  0.3158  1.0000  -4.2953   0.0000   0.0000   0.0000   0.2948
  16.250   2.2109   0.07194   0.06746  -0.1830  0.3088  1.0000  -4.3208   0.0000   0.0000   0.0000   0.2942
  16.500   2.1982   0.07642   0.07205  -0.1821  0.3018  1.0000  -4.3660   0.0000   0.0000   0.0000   0.2935
  16.750   2.1891   0.08050   0.07621  -0.1814  0.2948  1.0000  -4.4227   0.0000   0.0000   0.0000   0.2927
  17.000   2.1797   0.08470   0.08047  -0.1808  0.2873  1.0000  -4.4781   0.0000   0.0000   0.0000   0.2920
  17.250   2.1646   0.08982   0.08569  -0.1805  0.2792  1.0000  -4.5426   0.0000   0.0000   0.0000   0.2917
  17.500   2.1488   0.09514   0.09112  -0.1805  0.2705  1.0000  -4.6039   0.0000   0.0000   0.0000   0.2915
  17.750   2.1342   0.10036   0.09641  -0.1806  0.2615  1.0000  -4.6699   0.0000   0.0000   0.0000   0.2913
  18.000   2.1206   0.10547   0.10158  -0.1809  0.2521  1.0000  -4.7421   0.0000   0.0000   0.0000   0.2912
  18.250   2.1073   0.11056   0.10670  -0.1814  0.2423  1.0000  -4.8162   0.0000   0.0000   0.0000   0.2912
  19.000   2.0621   0.12690   0.12313  -0.1844  0.2090  1.0000  -4.9920   0.0000   0.0000   0.0000   0.2922
  19.250   2.0481   0.13221   0.12843  -0.1858  0.1972  1.0000  -5.0511   0.0000   0.0000   0.0000   0.2926
  19.500   2.0344   0.13747   0.13368  -0.1873  0.1854  1.0000  -5.1100   0.0000   0.0000   0.0000   0.2932
  19.750   2.0221   0.14245   0.13860  -0.1889  0.1743  1.0000  -5.1754   0.0000   0.0000   0.0000   0.2938
  20.000   2.0109   0.14730   0.14344  -0.1906  0.1637  1.0000  -5.2447   0.0000   0.0000   0.0000   0.2944
  20.250   2.0012   0.15187   0.14798  -0.1924  0.1541  1.0000  -5.3228   0.0000   0.0000   0.0000   0.2949
  20.500   1.9930   0.15619   0.15226  -0.1941  0.1454  1.0000  -5.4096   0.0000   0.0000   0.0000   0.2954
  20.750   1.9864   0.16025   0.15629  -0.1959  0.1374  1.0000  -5.5055   0.0000   0.0000   0.0000   0.2958
  21.000   1.9809   0.16411   0.16015  -0.1977  0.1300  1.0000  -5.6087   0.0000   0.0000   0.0000   0.2961
  21.250   1.9761   0.16786   0.16391  -0.1995  0.1232  1.0000  -5.7159   0.0000   0.0000   0.0000   0.2965
  21.500   1.9720   0.17148   0.16753  -0.2014  0.1169  1.0000  -5.8276   0.0000   0.0000   0.0000   0.2968
  21.750   1.9687   0.17496   0.17102  -0.2032  0.1109  1.0000  -5.9445   0.0000   0.0000   0.0000   0.2971
  22.000   1.9657   0.17834   0.17440  -0.2051  0.1054  1.0000  -6.0647   0.0000   0.0000   0.0000   0.2973
  22.250   1.9633   0.18161   0.17764  -0.2070  0.1003  1.0000  -6.1894   0.0000   0.0000   0.0000   0.2976
  22.500   1.9610   0.18496   0.18105  -0.2090  0.0950  1.0000  -6.3121   0.0000   0.0000   0.0000   0.2979
  22.750   1.9589   0.18819   0.18433  -0.2110  0.0902  1.0000  -6.4371   0.0000   0.0000   0.0000   0.2981
  23.000   1.9572   0.19134   0.18750  -0.2130  0.0856  1.0000  -6.5661   0.0000   0.0000   0.0000   0.2984
  23.250   1.9558   0.19440   0.19055  -0.2150  0.0814  1.0000  -6.6984   0.0000   0.0000   0.0000   0.2986
  23.500   1.9537   0.19765   0.19384  -0.2173  0.0772  1.0000  -6.8236   0.0000   0.0000   0.0000   0.2990
  23.750   1.9517   0.20085   0.19710  -0.2195  0.0731  1.0000  -6.9494   0.0000   0.0000   0.0000   0.2994
  24.000   1.9502   0.20393   0.20021  -0.2218  0.0693  1.0000  -7.0789   0.0000   0.0000   0.0000   0.2997
  24.250   1.9487   0.20697   0.20326  -0.2240  0.0657  1.0000  -7.2106   0.0000   0.0000   0.0000   0.3001
  24.500   1.9468   0.21013   0.20645  -0.2265  0.0623  1.0000  -7.3383   0.0000   0.0000   0.0000   0.3005
  24.750   1.9446   0.21335   0.20976  -0.2290  0.0589  1.0000  -7.4671   0.0000   0.0000   0.0000   0.3010
  25.000   1.9428   0.21643   0.21288  -0.2315  0.0558  1.0000  -7.6027   0.0000   0.0000   0.0000   0.3015


