xflr5 v6.59

 Calculated polar for: TKV2008

 1 1 Reynolds number fixed          Mach number fixed         

 xtrf =   1.000 (top)        1.000 (bottom)
 Mach =   0.000     Re =     0.120 e 6     Ncrit =   9.000

  alpha     CL        CD       CDp       Cm    Top Xtr Bot Xtr   Cpmin    Chinge    XCp    
 ------- -------- --------- --------- -------- ------- ------- -------- --------- ---------
 -24.750  -0.4509   0.26679   0.26114  -0.0019  1.0000  0.0192  -1.3172   0.0000   0.0000   0.0000   0.2034
 -24.500  -0.4437   0.26458   0.25893  -0.0033  1.0000  0.0194  -1.2997   0.0000   0.0000   0.0000   0.2001
 -24.250  -0.4363   0.26243   0.25679  -0.0047  1.0000  0.0196  -1.2856   0.0000   0.0000   0.0000   0.1966
 -24.000  -0.4289   0.26038   0.25476  -0.0062  1.0000  0.0198  -1.2739   0.0000   0.0000   0.0000   0.1930
 -23.750  -0.4215   0.25828   0.25267  -0.0076  1.0000  0.0200  -1.2637   0.0000   0.0000   0.0000   0.1892
 -23.500  -0.4140   0.25617   0.25057  -0.0091  1.0000  0.0203  -1.2589   0.0000   0.0000   0.0000   0.1853
 -23.250  -0.4066   0.25404   0.24846  -0.0105  1.0000  0.0205  -1.2570   0.0000   0.0000   0.0000   0.1813
 -23.000  -0.3991   0.25191   0.24633  -0.0119  1.0000  0.0207  -1.2558   0.0000   0.0000   0.0000   0.1771
 -22.750  -0.3916   0.24976   0.24420  -0.0133  1.0000  0.0209  -1.2555   0.0000   0.0000   0.0000   0.1729
 -22.500  -0.3842   0.24763   0.24208  -0.0147  1.0000  0.0210  -1.2565   0.0000   0.0000   0.0000   0.1684
 -21.750  -0.3621   0.24125   0.23575  -0.0187  1.0000  0.0212  -1.2654   0.0000   0.0000   0.0000   0.1542
 -21.500  -0.3547   0.23897   0.23350  -0.0198  1.0000  0.0214  -1.2462   0.0000   0.0000   0.0000   0.1498
 -21.250  -0.3473   0.23679   0.23134  -0.0210  1.0000  0.0216  -1.2314   0.0000   0.0000   0.0000   0.1450
 -21.000  -0.3399   0.23465   0.22921  -0.0221  1.0000  0.0218  -1.2188   0.0000   0.0000   0.0000   0.1401
 -20.750  -0.3325   0.23251   0.22709  -0.0233  1.0000  0.0221  -1.2147   0.0000   0.0000   0.0000   0.1349
 -20.500  -0.3252   0.23034   0.22494  -0.0244  1.0000  0.0224  -1.2125   0.0000   0.0000   0.0000   0.1296
 -19.000  -0.2827   0.21739   0.21214  -0.0306  1.0000  0.0234  -1.2223   0.0000   0.0000   0.0000   0.0939
 -18.750  -0.2757   0.21515   0.20992  -0.0314  1.0000  0.0236  -1.2056   0.0000   0.0000   0.0000   0.0879
 -18.500  -0.2688   0.21299   0.20778  -0.0322  1.0000  0.0239  -1.1934   0.0000   0.0000   0.0000   0.0816
 -18.250  -0.2620   0.21081   0.20564  -0.0330  1.0000  0.0241  -1.1838   0.0000   0.0000   0.0000   0.0751
 -18.000  -0.2553   0.20867   0.20353  -0.0337  1.0000  0.0244  -1.1760   0.0000   0.0000   0.0000   0.0684
 -17.750  -0.2488   0.20657   0.20146  -0.0344  1.0000  0.0247  -1.1705   0.0000   0.0000   0.0000   0.0615
 -17.500  -0.2424   0.20444   0.19936  -0.0351  1.0000  0.0250  -1.1740   0.0000   0.0000   0.0000   0.0545
 -17.250  -0.2361   0.20235   0.19730  -0.0358  1.0000  0.0252  -1.1808   0.0000   0.0000   0.0000   0.0474
 -17.000  -0.2302   0.20031   0.19529  -0.0364  1.0000  0.0254  -1.1932   0.0000   0.0000   0.0000   0.0401
 -16.750  -0.2246   0.19836   0.19339  -0.0371  1.0000  0.0255  -1.2113   0.0000   0.0000   0.0000   0.0327
 -16.500  -0.2185   0.19605   0.19111  -0.0374  1.0000  0.0258  -1.1895   0.0000   0.0000   0.0000   0.0264
 -16.250  -0.2128   0.19396   0.18906  -0.0377  1.0000  0.0261  -1.1780   0.0000   0.0000   0.0000   0.0199
 -16.000  -0.2074   0.19193   0.18708  -0.0380  1.0000  0.0265  -1.1721   0.0000   0.0000   0.0000   0.0136
 -15.750  -0.2024   0.18994   0.18513  -0.0382  1.0000  0.0268  -1.1696   0.0000   0.0000   0.0000   0.0075
 -15.500  -0.1977   0.18800   0.18324  -0.0384  1.0000  0.0271  -1.1699   0.0000   0.0000   0.0000   0.0019
 -14.500  -0.1850   0.18091   0.17638  -0.0380  1.0000  0.0279  -1.1917   0.0000   0.0000   0.0000  -0.0086
 -14.250  -0.1835   0.17925   0.17479  -0.0372  1.0000  0.0281  -1.1754   0.0000   0.0000   0.0000  -0.0052
 -13.250  -0.1670   0.17248   0.16827  -0.0390  0.9958  0.0296  -1.1592   0.0000   0.0000   0.0000  -0.0377
 -13.000  -0.1420   0.16854   0.16432  -0.0452  0.9915  0.0300  -1.1682   0.0000   0.0000   0.0000  -0.1329
 -12.750  -0.1179   0.16450   0.16027  -0.0512  0.9867  0.0303  -1.1741   0.0000   0.0000   0.0000  -0.2623
 -12.500  -0.0933   0.16030   0.15606  -0.0564  0.9819  0.0309  -1.1383   0.0000   0.0000   0.0000  -0.4539
 -12.250  -0.0693   0.15629   0.15204  -0.0619  0.9770  0.0317  -1.1224   0.0000   0.0000   0.0000  -0.7774
 -12.000  -0.0453   0.15238   0.14811  -0.0676  0.9724  0.0325  -1.1265   0.0000   0.0000   0.0000  -1.4500
 -11.750  -0.0232   0.14840   0.14412  -0.0728  0.9661  0.0329  -1.1311   0.0000   0.0000   0.0000  -3.2941
 -11.500  -0.0006   0.14431   0.14002  -0.0772  0.9595  0.0336  -1.0947   0.0000   0.0000   0.0000  -153.5335
 -11.250   0.0208   0.14043   0.13613  -0.0817  0.9523  0.0344  -1.0795   0.0000   0.0000   0.0000   4.6178
 -11.000   0.0413   0.13671   0.13240  -0.0862  0.9447  0.0351  -1.0800   0.0000   0.0000   0.0000   2.5624
 -10.750   0.0605   0.13319   0.12889  -0.0908  0.9367  0.0354  -1.0962   0.0000   0.0000   0.0000   1.9025
 -10.500   0.0816   0.12913   0.12482  -0.0942  0.9290  0.0361  -1.0500   0.0000   0.0000   0.0000   1.5168
 -10.250   0.1016   0.12546   0.12114  -0.0979  0.9210  0.0370  -1.0292   0.0000   0.0000   0.0000   1.3033
 -10.000   0.1210   0.12197   0.11763  -0.1019  0.9130  0.0379  -1.0407   0.0000   0.0000   0.0000   1.1665
  -9.750   0.1403   0.11848   0.11413  -0.1061  0.9057  0.0383  -1.0624   0.0000   0.0000   0.0000   1.0697
  -9.500   0.1658   0.11423   0.10985  -0.1104  0.9010  0.0393  -1.0226   0.0000   0.0000   0.0000   0.9694
  -9.250   0.1882   0.11059   0.10618  -0.1148  0.8930  0.0405  -1.0168   0.0000   0.0000   0.0000   0.9065
  -9.000   0.2118   0.10721   0.10275  -0.1207  0.8853  0.0412  -1.0515   0.0000   0.0000   0.0000   0.8610
  -8.750   0.2455   0.10248   0.09796  -0.1268  0.8806  0.0425  -0.9951   0.0000   0.0000   0.0000   0.8022
  -8.500   0.2757   0.09879   0.09420  -0.1339  0.8721  0.0443  -1.0029   0.0000   0.0000   0.0000   0.7676
  -8.250   0.3088   0.09460   0.08992  -0.1405  0.8634  0.0455  -0.9670   0.0000   0.0000   0.0000   0.7334
  -8.000   0.3410   0.09101   0.08622  -0.1478  0.8535  0.0475  -0.9694   0.0000   0.0000   0.0000   0.7091
  -7.750   0.3716   0.08739   0.08250  -0.1540  0.8429  0.0486  -0.9888   0.0000   0.0000   0.0000   0.6879
  -7.500   0.3978   0.08442   0.07941  -0.1588  0.8313  0.0505  -1.0058   0.0000   0.0000   0.0000   0.6709
  -7.250   0.4146   0.08247   0.07737  -0.1630  0.8192  0.0516  -1.0145   0.0000   0.0000   0.0000   0.6635
  -7.000   0.4367   0.07956   0.07436  -0.1651  0.8090  0.0532  -1.0314   0.0000   0.0000   0.0000   0.6470
  -6.750   0.4507   0.07776   0.07248  -0.1674  0.7989  0.0550  -1.0402   0.0000   0.0000   0.0000   0.6393
  -6.500   0.4618   0.07592   0.07058  -0.1685  0.7891  0.0560  -1.0485   0.0000   0.0000   0.0000   0.6317
  -6.250   0.4719   0.07420   0.06884  -0.1682  0.7796  0.0576  -1.0580   0.0000   0.0000   0.0000   0.6223
  -6.000   0.4762   0.07311   0.06773  -0.1684  0.7706  0.0593  -1.0614   0.0000   0.0000   0.0000   0.6186
  -5.750   0.4890   0.07115   0.06570  -0.1693  0.7635  0.0606  -1.0719   0.0000   0.0000   0.0000   0.6101
  -5.500   0.4921   0.07007   0.06465  -0.1677  0.7549  0.0625  -1.0764   0.0000   0.0000   0.0000   0.6039
  -5.000   0.5107   0.06714   0.06167  -0.1687  0.7410  0.0666  -1.0908   0.0000   0.0000   0.0000   0.5918
  -4.750   0.5164   0.06644   0.06100  -0.1716  0.7337  0.0691  -1.0907   0.0000   0.0000   0.0000   0.5930
  -4.500   0.5322   0.06411   0.05862  -0.1705  0.7281  0.0712  -1.1063   0.0000   0.0000   0.0000   0.5803
  -4.250   0.5417   0.06306   0.05761  -0.1732  0.7212  0.0743  -1.1106   0.0000   0.0000   0.0000   0.5790
  -4.000   0.5582   0.06094   0.05544  -0.1735  0.7159  0.0764  -1.1251   0.0000   0.0000   0.0000   0.5692
  -3.500   0.5895   0.05763   0.05211  -0.1772  0.7042  0.0829  -1.1469   0.0000   0.0000   0.0000   0.5575
  -3.250   0.6126   0.05576   0.05023  -0.1827  0.6982  0.0875  -1.1588   0.0000   0.0000   0.0000   0.5542
  -2.750   0.6578   0.05204   0.04643  -0.1872  0.6879  0.0977  -1.1912   0.0000   0.0000   0.0000   0.5391
  -2.500   0.6811   0.05029   0.04468  -0.1904  0.6819  0.1043  -1.2069   0.0000   0.0000   0.0000   0.5335
  -1.750   0.8245   0.04341   0.03733  -0.2170  0.6668  0.1471  -1.2970   0.0000   0.0000   0.0000   0.5150
  -1.500   0.8472   0.04201   0.03595  -0.2176  0.6615  0.1575  -1.3152   0.0000   0.0000   0.0000   0.5081
  -1.000   1.0353   0.03047   0.02296  -0.2528  0.6525  0.0920  -1.4242   0.0000   0.0000   0.0000   0.4942
  -0.750   1.0902   0.02798   0.01962  -0.2591  0.6466  0.0801  -1.4603   0.0000   0.0000   0.0000   0.4872
  -0.500   1.1322   0.02688   0.01808  -0.2618  0.6425  0.0796  -1.4944   0.0000   0.0000   0.0000   0.4804
  -0.250   1.1620   0.02653   0.01760  -0.2624  0.6375  0.0834  -1.5200   0.0000   0.0000   0.0000   0.4745
   0.000   1.1927   0.02618   0.01709  -0.2629  0.6325  0.0881  -1.5467   0.0000   0.0000   0.0000   0.4686
   0.250   1.2287   0.02577   0.01657  -0.2644  0.6291  0.0984  -1.5790   0.0000   0.0000   0.0000   0.4628
   0.500   1.2506   0.02596   0.01691  -0.2635  0.6233  0.1125  -1.5985   0.0000   0.0000   0.0000   0.4580
   0.750   1.2850   0.02575   0.01690  -0.2648  0.6191  0.1746  -1.6297   0.0000   0.0000   0.0000   0.4529
   1.000   1.3175   0.02582   0.01723  -0.2660  0.6151  0.3469  -1.6601   0.0000   0.0000   0.0000   0.4482
   1.250   1.3398   0.02619   0.01781  -0.2653  0.6097  0.4264  -1.6822   0.0000   0.0000   0.0000   0.4439
   1.500   1.3713   0.02603   0.01795  -0.2659  0.6060  0.5709  -1.7145   0.0000   0.0000   0.0000   0.4393
   1.750   1.3781   0.02593   0.01838  -0.2613  0.6015  1.0000  -1.7277   0.0000   0.0000   0.0000   0.4346
   2.000   1.4039   0.02649   0.01872  -0.2611  0.5969  1.0000  -1.7552   0.0000   0.0000   0.0000   0.4305
   2.250   1.4365   0.02676   0.01871  -0.2620  0.5937  1.0000  -1.7899   0.0000   0.0000   0.0000   0.4264
   2.500   1.4539   0.02765   0.01960  -0.2605  0.5885  1.0000  -1.8097   0.0000   0.0000   0.0000   0.4227
   2.750   1.4800   0.02814   0.01995  -0.2603  0.5843  1.0000  -1.8383   0.0000   0.0000   0.0000   0.4190
   3.000   1.5137   0.02832   0.01992  -0.2614  0.5813  1.0000  -1.8747   0.0000   0.0000   0.0000   0.4152
   3.250   1.5253   0.02946   0.02114  -0.2589  0.5756  1.0000  -1.8888   0.0000   0.0000   0.0000   0.4119
   3.500   1.5530   0.02985   0.02143  -0.2590  0.5718  1.0000  -1.9193   0.0000   0.0000   0.0000   0.4084
   3.750   1.5866   0.03006   0.02146  -0.2601  0.5691  1.0000  -1.9557   0.0000   0.0000   0.0000   0.4051
   4.000   1.5930   0.03145   0.02301  -0.2569  0.5632  1.0000  -1.9643   0.0000   0.0000   0.0000   0.4020
   4.250   1.6219   0.03178   0.02324  -0.2572  0.5597  1.0000  -1.9964   0.0000   0.0000   0.0000   0.3988
   4.500   1.6473   0.03234   0.02374  -0.2569  0.5562  1.0000  -2.0266   0.0000   0.0000   0.0000   0.3957
   4.750   1.6567   0.03361   0.02512  -0.2543  0.5509  1.0000  -2.0413   0.0000   0.0000   0.0000   0.3928
   5.000   1.6875   0.03383   0.02525  -0.2548  0.5478  1.0000  -2.0795   0.0000   0.0000   0.0000   0.3898
   5.250   1.7026   0.03487   0.02634  -0.2531  0.5434  1.0000  -2.1013   0.0000   0.0000   0.0000   0.3870
   5.500   1.7157   0.03596   0.02750  -0.2510  0.5387  1.0000  -2.1210   0.0000   0.0000   0.0000   0.3841
   5.750   1.7488   0.03606   0.02751  -0.2519  0.5359  1.0000  -2.1618   0.0000   0.0000   0.0000   0.3814
   6.000   1.7513   0.03776   0.02936  -0.2483  0.5310  1.0000  -2.1700   0.0000   0.0000   0.0000   0.3787
   6.250   1.7676   0.03870   0.03034  -0.2468  0.5268  1.0000  -2.1930   0.0000   0.0000   0.0000   0.3760
   6.500   1.8040   0.03861   0.03017  -0.2482  0.5243  1.0000  -2.2389   0.0000   0.0000   0.0000   0.3734
   6.750   1.7851   0.04146   0.03325  -0.2417  0.5184  1.0000  -2.2261   0.0000   0.0000   0.0000   0.3708
   7.000   1.8071   0.04210   0.03392  -0.2410  0.5150  1.0000  -2.2572   0.0000   0.0000   0.0000   0.3682
   7.250   1.8495   0.04170   0.03344  -0.2433  0.5128  1.0000  -2.3104   0.0000   0.0000   0.0000   0.3659
   7.500   1.6387   0.05709   0.04951  -0.2147  0.4968  1.0000  -2.0831   0.0000   0.0000   0.0000   0.3650
   7.750   1.7162   0.05315   0.04546  -0.2192  0.4974  1.0000  -2.1785   0.0000   0.0000   0.0000   0.3611
   8.000   1.8504   0.04690   0.03896  -0.2322  0.4997  1.0000  -2.3338   0.0000   0.0000   0.0000   0.3583
   8.500   1.8361   0.05125   0.04350  -0.2233  0.4906  1.0000  -2.3320   0.0000   0.0000   0.0000   0.3534
  16.750   1.5716   0.19020   0.18512  -0.2148  0.2620  1.0000  -2.3622   0.0000   0.0000   0.0000   0.3497
  17.000   1.6022   0.18731   0.18233  -0.2124  0.2605  1.0000  -2.4893   0.0000   0.0000   0.0000   0.3446
  17.500   1.6044   0.19322   0.18840  -0.2156  0.2442  1.0000  -2.5356   0.0000   0.0000   0.0000   0.3451
  18.500   1.6669   0.19261   0.18818  -0.2140  0.2254  1.0000  -2.8798   0.0000   0.0000   0.0000   0.3355
  18.750   1.7013   0.18815   0.18386  -0.2108  0.2248  1.0000  -3.0633   0.0000   0.0000   0.0000   0.3299
  19.250   1.7317   0.18766   0.18358  -0.2101  0.2152  1.0000  -3.2972   0.0000   0.0000   0.0000   0.3254
  19.500   1.7741   0.18162   0.17769  -0.2061  0.2153  1.0000  -3.5468   0.0000   0.0000   0.0000   0.3190
  19.750   1.8268   0.17406   0.17028  -0.2012  0.2151  1.0000  -3.8505   0.0000   0.0000   0.0000   0.3117
  20.000   1.8481   0.17289   0.16920  -0.2002  0.2089  1.0000  -4.0149   0.0000   0.0000   0.0000   0.3090
  20.250   1.8693   0.17187   0.16826  -0.1993  0.2020  1.0000  -4.2654   0.0000   0.0000   0.0000   0.3063
  20.500   1.9139   0.16646   0.16287  -0.1958  0.1955  1.0000  -4.6961   0.0000   0.0000   0.0000   0.3008
  20.750   1.9312   0.16616   0.16256  -0.1953  0.1867  1.0000  -4.9536   0.0000   0.0000   0.0000   0.2987
  21.000   1.9423   0.16700   0.16338  -0.1954  0.1776  1.0000  -5.1686   0.0000   0.0000   0.0000   0.2973
  21.250   1.9530   0.16780   0.16414  -0.1956  0.1686  1.0000  -5.3852   0.0000   0.0000   0.0000   0.2960
  21.500   1.9625   0.16880   0.16508  -0.1959  0.1598  1.0000  -5.5944   0.0000   0.0000   0.0000   0.2947
  21.750   1.9699   0.17007   0.16628  -0.1964  0.1513  1.0000  -5.7909   0.0000   0.0000   0.0000   0.2937
  22.000   1.9754   0.17172   0.16787  -0.1971  0.1432  1.0000  -5.9734   0.0000   0.0000   0.0000   0.2930
  22.250   1.9776   0.17396   0.17009  -0.1983  0.1357  1.0000  -6.1304   0.0000   0.0000   0.0000   0.2926
  22.500   1.9752   0.17710   0.17327  -0.2002  0.1289  1.0000  -6.2484   0.0000   0.0000   0.0000   0.2928
  22.750   1.9733   0.18015   0.17636  -0.2020  0.1225  1.0000  -6.3692   0.0000   0.0000   0.0000   0.2929
  23.000   1.9731   0.18285   0.17910  -0.2037  0.1165  1.0000  -6.5047   0.0000   0.0000   0.0000   0.2929
  23.250   1.9752   0.18505   0.18131  -0.2051  0.1108  1.0000  -6.6607   0.0000   0.0000   0.0000   0.2926
  23.500   1.9798   0.18677   0.18302  -0.2062  0.1052  1.0000  -6.8401   0.0000   0.0000   0.0000   0.2920
  23.750   1.9882   0.18760   0.18378  -0.2068  0.0998  1.0000  -7.0565   0.0000   0.0000   0.0000   0.2909
  24.000   1.9770   0.19254   0.18893  -0.2103  0.0957  1.0000  -7.0884   0.0000   0.0000   0.0000   0.2924
  24.250   1.9762   0.19530   0.19176  -0.2123  0.0914  1.0000  -7.2153   0.0000   0.0000   0.0000   0.2926
  24.500   1.9831   0.19642   0.19285  -0.2132  0.0869  1.0000  -7.4200   0.0000   0.0000   0.0000   0.2917
  24.750   1.9786   0.19994   0.19649  -0.2159  0.0832  1.0000  -7.5116   0.0000   0.0000   0.0000   0.2924
  25.000   1.9724   0.20380   0.20049  -0.2189  0.0799  1.0000  -7.5818   0.0000   0.0000   0.0000   0.2934


