xflr5 v6.59

 Calculated polar for: TKV2008

 1 1 Reynolds number fixed          Mach number fixed         

 xtrf =   1.000 (top)        1.000 (bottom)
 Mach =   0.000     Re =     0.220 e 6     Ncrit =   9.000

  alpha     CL        CD       CDp       Cm    Top Xtr Bot Xtr   Cpmin    Chinge    XCp    
 ------- -------- --------- --------- -------- ------- ------- -------- --------- ---------
 -25.000  -0.4636   0.26882   0.26466   0.0020  1.0000  0.0126  -1.3137   0.0000   0.0000   0.0000   0.2126
 -24.750  -0.4563   0.26672   0.26257   0.0005  1.0000  0.0127  -1.3024   0.0000   0.0000   0.0000   0.2093
 -24.500  -0.4490   0.26461   0.26046  -0.0010  1.0000  0.0129  -1.2968   0.0000   0.0000   0.0000   0.2059
 -24.250  -0.4416   0.26247   0.25833  -0.0025  1.0000  0.0131  -1.2915   0.0000   0.0000   0.0000   0.2024
 -24.000  -0.4342   0.26032   0.25619  -0.0040  1.0000  0.0132  -1.2863   0.0000   0.0000   0.0000   0.1989
 -23.750  -0.4268   0.25815   0.25403  -0.0055  1.0000  0.0133  -1.2814   0.0000   0.0000   0.0000   0.1952
 -23.500  -0.4194   0.25598   0.25186  -0.0069  1.0000  0.0134  -1.2769   0.0000   0.0000   0.0000   0.1915
 -23.250  -0.4119   0.25379   0.24968  -0.0083  1.0000  0.0135  -1.2808   0.0000   0.0000   0.0000   0.1876
 -23.000  -0.4045   0.25158   0.24748  -0.0097  1.0000  0.0136  -1.2868   0.0000   0.0000   0.0000   0.1836
 -22.250  -0.3823   0.24498   0.24092  -0.0139  1.0000  0.0137  -1.3169   0.0000   0.0000   0.0000   0.1707
 -22.000  -0.3750   0.24274   0.23869  -0.0151  1.0000  0.0138  -1.2924   0.0000   0.0000   0.0000   0.1668
 -21.750  -0.3677   0.24061   0.23657  -0.0163  1.0000  0.0139  -1.2753   0.0000   0.0000   0.0000   0.1626
 -21.500  -0.3604   0.23846   0.23443  -0.0175  1.0000  0.0141  -1.2623   0.0000   0.0000   0.0000   0.1582
 -21.250  -0.3530   0.23633   0.23231  -0.0187  1.0000  0.0142  -1.2514   0.0000   0.0000   0.0000   0.1536
 -21.000  -0.3457   0.23414   0.23014  -0.0198  1.0000  0.0143  -1.2414   0.0000   0.0000   0.0000   0.1488
 -20.750  -0.3383   0.23196   0.22797  -0.0210  1.0000  0.0145  -1.2319   0.0000   0.0000   0.0000   0.1440
 -20.500  -0.3310   0.22976   0.22579  -0.0221  1.0000  0.0146  -1.2286   0.0000   0.0000   0.0000   0.1390
 -20.250  -0.3238   0.22759   0.22363  -0.0232  1.0000  0.0148  -1.2283   0.0000   0.0000   0.0000   0.1338
 -20.000  -0.3166   0.22537   0.22143  -0.0242  1.0000  0.0150  -1.2287   0.0000   0.0000   0.0000   0.1285
 -19.750  -0.3094   0.22313   0.21921  -0.0252  1.0000  0.0151  -1.2302   0.0000   0.0000   0.0000   0.1231
 -18.500  -0.2748   0.21203   0.20820  -0.0300  1.0000  0.0155  -1.2626   0.0000   0.0000   0.0000   0.0935
 -18.250  -0.2681   0.20981   0.20601  -0.0307  1.0000  0.0156  -1.2370   0.0000   0.0000   0.0000   0.0880
 -18.000  -0.2615   0.20767   0.20389  -0.0313  1.0000  0.0158  -1.2197   0.0000   0.0000   0.0000   0.0820
 -17.750  -0.2550   0.20553   0.20177  -0.0320  1.0000  0.0159  -1.2068   0.0000   0.0000   0.0000   0.0759
 -17.500  -0.2486   0.20339   0.19966  -0.0327  1.0000  0.0161  -1.1962   0.0000   0.0000   0.0000   0.0697
 -17.250  -0.2423   0.20126   0.19755  -0.0332  1.0000  0.0163  -1.1920   0.0000   0.0000   0.0000   0.0635
 -17.000  -0.2362   0.19913   0.19545  -0.0338  1.0000  0.0165  -1.1924   0.0000   0.0000   0.0000   0.0572
 -16.750  -0.2304   0.19700   0.19335  -0.0343  1.0000  0.0166  -1.1940   0.0000   0.0000   0.0000   0.0510
 -16.500  -0.2247   0.19491   0.19128  -0.0347  1.0000  0.0168  -1.1972   0.0000   0.0000   0.0000   0.0449
 -15.250  -0.2016   0.18485   0.18140  -0.0359  1.0000  0.0173  -1.2591   0.0000   0.0000   0.0000   0.0206
 -15.000  -0.1982   0.18292   0.17951  -0.0355  1.0000  0.0174  -1.2341   0.0000   0.0000   0.0000   0.0196
 -14.750  -0.1958   0.18122   0.17787  -0.0350  1.0000  0.0176  -1.2193   0.0000   0.0000   0.0000   0.0205
 -14.500  -0.1904   0.17922   0.17592  -0.0354  0.9996  0.0178  -1.2061   0.0000   0.0000   0.0000   0.0124
 -14.250  -0.1678   0.17537   0.17204  -0.0407  0.9972  0.0181  -1.1833   0.0000   0.0000   0.0000  -0.0513
 -14.000  -0.1457   0.17148   0.16815  -0.0459  0.9945  0.0185  -1.1672   0.0000   0.0000   0.0000  -0.1322
 -13.750  -0.1237   0.16763   0.16429  -0.0510  0.9919  0.0189  -1.1580   0.0000   0.0000   0.0000  -0.2424
 -13.500  -0.1022   0.16373   0.16038  -0.0561  0.9888  0.0191  -1.1651   0.0000   0.0000   0.0000  -0.3958
 -13.000  -0.0599   0.15592   0.15255  -0.0657  0.9825  0.0194  -1.1658   0.0000   0.0000   0.0000  -1.0134
 -12.750  -0.0382   0.15209   0.14872  -0.0704  0.9797  0.0197  -1.1374   0.0000   0.0000   0.0000  -1.8541
 -11.000   0.0871   0.12673   0.12338  -0.0951  0.9297  0.0218  -1.0872   0.0000   0.0000   0.0000   1.4498
 -10.750   0.1021   0.12349   0.12013  -0.0974  0.9164  0.0222  -1.0708   0.0000   0.0000   0.0000   1.2959
 -10.500   0.1214   0.11987   0.11649  -0.1011  0.9057  0.0228  -1.0630   0.0000   0.0000   0.0000   1.1594
 -10.000   0.1738   0.11146   0.10797  -0.1127  0.8877  0.0236  -1.0595   0.0000   0.0000   0.0000   0.9518
  -9.750   0.2094   0.10679   0.10322  -0.1207  0.8786  0.0243  -1.0297   0.0000   0.0000   0.0000   0.8713
  -9.500   0.2523   0.10173   0.09804  -0.1313  0.8690  0.0251  -1.0238   0.0000   0.0000   0.0000   0.8082
  -9.250   0.3004   0.09645   0.09260  -0.1440  0.8565  0.0256  -1.0516   0.0000   0.0000   0.0000   0.7621
  -9.000   0.3452   0.09177   0.08773  -0.1540  0.8388  0.0263  -0.9841   0.0000   0.0000   0.0000   0.7250
  -8.750   0.3748   0.08848   0.08422  -0.1603  0.8179  0.0272  -0.9889   0.0000   0.0000   0.0000   0.7043
  -8.500   0.3922   0.08612   0.08169  -0.1640  0.7994  0.0277  -1.0125   0.0000   0.0000   0.0000   0.6932
  -8.250   0.4055   0.08392   0.07937  -0.1651  0.7836  0.0281  -1.0093   0.0000   0.0000   0.0000   0.6808
  -8.000   0.4175   0.08201   0.07736  -0.1659  0.7704  0.0286  -1.0195   0.0000   0.0000   0.0000   0.6697
  -7.750   0.4278   0.08020   0.07547  -0.1665  0.7590  0.0294  -1.0283   0.0000   0.0000   0.0000   0.6605
  -7.500   0.4365   0.07846   0.07365  -0.1674  0.7489  0.0300  -1.0348   0.0000   0.0000   0.0000   0.6536
  -7.250   0.4458   0.07659   0.07172  -0.1680  0.7398  0.0304  -1.0426   0.0000   0.0000   0.0000   0.6457
  -7.000   0.4553   0.07489   0.06999  -0.1678  0.7305  0.0312  -1.0519   0.0000   0.0000   0.0000   0.6364
  -6.750   0.4639   0.07323   0.06829  -0.1681  0.7225  0.0323  -1.0589   0.0000   0.0000   0.0000   0.6294
  -6.500   0.4703   0.07158   0.06659  -0.1689  0.7154  0.0328  -1.0631   0.0000   0.0000   0.0000   0.6251
  -6.250   0.4801   0.06984   0.06484  -0.1683  0.7079  0.0335  -1.0739   0.0000   0.0000   0.0000   0.6155
  -5.750   0.4913   0.06686   0.06184  -0.1680  0.6949  0.0352  -1.0849   0.0000   0.0000   0.0000   0.6052
  -5.500   0.4996   0.06523   0.06015  -0.1682  0.6897  0.0357  -1.0925   0.0000   0.0000   0.0000   0.5992
  -5.250   0.5079   0.06372   0.05867  -0.1676  0.6832  0.0365  -1.1011   0.0000   0.0000   0.0000   0.5916
  -5.000   0.5198   0.06199   0.05689  -0.1693  0.6782  0.0378  -1.1095   0.0000   0.0000   0.0000   0.5863
  -4.750   0.5295   0.06019   0.05513  -0.1708  0.6724  0.0385  -1.1156   0.0000   0.0000   0.0000   0.5824
  -4.500   0.5437   0.05848   0.05338  -0.1713  0.6673  0.0396  -1.1278   0.0000   0.0000   0.0000   0.5741
  -4.250   0.5626   0.05622   0.05111  -0.1773  0.6622  0.0413  -1.1351   0.0000   0.0000   0.0000   0.5733
  -3.500   0.6153   0.05054   0.04538  -0.1819  0.6471  0.0460  -1.1776   0.0000   0.0000   0.0000   0.5515
  -3.250   0.6446   0.04802   0.04279  -0.1876  0.6427  0.0488  -1.1957   0.0000   0.0000   0.0000   0.5461
  -3.000   0.6797   0.04522   0.03994  -0.1950  0.6382  0.0520  -1.2160   0.0000   0.0000   0.0000   0.5412
  -2.750   0.7191   0.04230   0.03695  -0.2029  0.6332  0.0558  -1.2392   0.0000   0.0000   0.0000   0.5357
  -2.500   0.7625   0.03950   0.03399  -0.2106  0.6292  0.0602  -1.2669   0.0000   0.0000   0.0000   0.5290
  -2.250   0.8264   0.03556   0.02985  -0.2244  0.6238  0.0692  -1.3030   0.0000   0.0000   0.0000   0.5237
  -2.000   0.8428   0.03468   0.02899  -0.2226  0.6195  0.0707  -1.3224   0.0000   0.0000   0.0000   0.5158
  -1.750   0.9106   0.03141   0.02538  -0.2354  0.6152  0.0865  -1.3649   0.0000   0.0000   0.0000   0.5094
  -1.250   1.0647   0.02120   0.01349  -0.2605  0.6062  0.0520  -1.4586   0.0000   0.0000   0.0000   0.4947
  -1.000   1.1028   0.02014   0.01204  -0.2627  0.6019  0.0510  -1.4887   0.0000   0.0000   0.0000   0.4877
  -0.750   1.1367   0.01938   0.01101  -0.2639  0.5973  0.0505  -1.5169   0.0000   0.0000   0.0000   0.4812
  -0.500   1.1708   0.01889   0.01030  -0.2651  0.5936  0.0528  -1.5473   0.0000   0.0000   0.0000   0.4750
   0.000   1.2299   0.01832   0.00963  -0.2658  0.5848  0.0600  -1.6028   0.0000   0.0000   0.0000   0.4637
   0.250   1.2629   0.01812   0.00941  -0.2669  0.5814  0.0668  -1.6339   0.0000   0.0000   0.0000   0.4585
   0.500   1.2912   0.01803   0.00940  -0.2671  0.5769  0.0795  -1.6608   0.0000   0.0000   0.0000   0.4535
   0.750   1.3245   0.01770   0.00947  -0.2685  0.5726  0.2213  -1.6916   0.0000   0.0000   0.0000   0.4489
   1.000   1.3551   0.01785   0.00956  -0.2691  0.5693  0.2912  -1.7221   0.0000   0.0000   0.0000   0.4443
   1.250   1.3794   0.01798   0.00983  -0.2686  0.5645  0.3384  -1.7476   0.0000   0.0000   0.0000   0.4400
   1.500   1.4081   0.01802   0.01002  -0.2689  0.5607  0.4101  -1.7770   0.0000   0.0000   0.0000   0.4358
   1.750   1.4393   0.01780   0.01035  -0.2697  0.5577  0.7102  -1.8094   0.0000   0.0000   0.0000   0.4317
   2.000   1.4530   0.01765   0.01046  -0.2665  0.5534  1.0000  -1.8295   0.0000   0.0000   0.0000   0.4273
   2.250   1.4802   0.01790   0.01058  -0.2664  0.5495  1.0000  -1.8605   0.0000   0.0000   0.0000   0.4234
   2.500   1.5104   0.01815   0.01064  -0.2670  0.5464  1.0000  -1.8943   0.0000   0.0000   0.0000   0.4197
   2.750   1.5338   0.01846   0.01094  -0.2662  0.5419  1.0000  -1.9218   0.0000   0.0000   0.0000   0.4160
   3.000   1.5602   0.01871   0.01112  -0.2660  0.5381  1.0000  -1.9523   0.0000   0.0000   0.0000   0.4125
   3.250   1.5899   0.01897   0.01123  -0.2665  0.5350  1.0000  -1.9860   0.0000   0.0000   0.0000   0.4091
   3.500   1.6129   0.01931   0.01160  -0.2657  0.5309  1.0000  -2.0133   0.0000   0.0000   0.0000   0.4058
   3.750   1.6382   0.01960   0.01185  -0.2654  0.5271  1.0000  -2.0430   0.0000   0.0000   0.0000   0.4026
   4.000   1.6673   0.01985   0.01198  -0.2658  0.5240  1.0000  -2.0764   0.0000   0.0000   0.0000   0.3995
   4.250   1.6901   0.02021   0.01237  -0.2650  0.5200  1.0000  -2.1036   0.0000   0.0000   0.0000   0.3964
   4.500   1.7142   0.02052   0.01267  -0.2644  0.5161  1.0000  -2.1324   0.0000   0.0000   0.0000   0.3934
   4.750   1.7427   0.02077   0.01283  -0.2647  0.5130  1.0000  -2.1656   0.0000   0.0000   0.0000   0.3905
   5.000   1.7651   0.02115   0.01325  -0.2639  0.5091  1.0000  -2.1949   0.0000   0.0000   0.0000   0.3876
   5.250   1.7881   0.02149   0.01360  -0.2631  0.5052  1.0000  -2.2267   0.0000   0.0000   0.0000   0.3848
   5.500   1.8158   0.02176   0.01381  -0.2633  0.5021  1.0000  -2.2632   0.0000   0.0000   0.0000   0.3822
   5.750   1.8387   0.02216   0.01424  -0.2626  0.4985  1.0000  -2.2948   0.0000   0.0000   0.0000   0.3795
   6.000   1.8600   0.02254   0.01466  -0.2616  0.4946  1.0000  -2.3249   0.0000   0.0000   0.0000   0.3768
   6.250   1.8866   0.02282   0.01491  -0.2616  0.4915  1.0000  -2.3607   0.0000   0.0000   0.0000   0.3743
   6.500   1.9111   0.02322   0.01531  -0.2613  0.4884  1.0000  -2.3940   0.0000   0.0000   0.0000   0.3718
   6.750   1.9298   0.02367   0.01587  -0.2598  0.4844  1.0000  -2.4229   0.0000   0.0000   0.0000   0.3693
   7.000   1.9548   0.02398   0.01617  -0.2595  0.4812  1.0000  -2.4592   0.0000   0.0000   0.0000   0.3669
   7.250   1.9812   0.02433   0.01649  -0.2596  0.4781  1.0000  -2.4971   0.0000   0.0000   0.0000   0.3646
   7.500   1.9964   0.02484   0.01714  -0.2575  0.4739  1.0000  -2.5234   0.0000   0.0000   0.0000   0.3621
   7.750   2.0201   0.02518   0.01748  -0.2570  0.4706  1.0000  -2.5587   0.0000   0.0000   0.0000   0.3598
   8.000   2.0479   0.02550   0.01776  -0.2573  0.4676  1.0000  -2.5983   0.0000   0.0000   0.0000   0.3577
   8.250   2.0596   0.02610   0.01853  -0.2547  0.4634  1.0000  -2.6211   0.0000   0.0000   0.0000   0.3551
   8.500   2.0820   0.02645   0.01891  -0.2540  0.4599  1.0000  -2.6553   0.0000   0.0000   0.0000   0.3529
   8.750   2.1117   0.02677   0.01917  -0.2547  0.4572  1.0000  -2.6967   0.0000   0.0000   0.0000   0.3510
   9.000   2.1195   0.02750   0.02011  -0.2514  0.4531  1.0000  -2.7152   0.0000   0.0000   0.0000   0.3485
   9.250   2.1393   0.02795   0.02062  -0.2503  0.4498  1.0000  -2.7465   0.0000   0.0000   0.0000   0.3463
   9.500   2.1708   0.02821   0.02081  -0.2514  0.4470  1.0000  -2.7905   0.0000   0.0000   0.0000   0.3445
   9.750   2.1736   0.02903   0.02185  -0.2472  0.4428  1.0000  -2.8137   0.0000   0.0000   0.0000   0.3419
  10.000   2.1903   0.02950   0.02239  -0.2456  0.4393  1.0000  -2.8643   0.0000   0.0000   0.0000   0.3398
  10.250   2.2235   0.02975   0.02259  -0.2470  0.4365  1.0000  -2.9494   0.0000   0.0000   0.0000   0.3381
  10.500   2.2193   0.03072   0.02378  -0.2417  0.4327  1.0000  -2.9795   0.0000   0.0000   0.0000   0.3354
  10.750   2.2317   0.03133   0.02448  -0.2394  0.4292  1.0000  -3.0346   0.0000   0.0000   0.0000   0.3332
  11.000   2.2631   0.03145   0.02455  -0.2404  0.4256  1.0000  -3.1193   0.0000   0.0000   0.0000   0.3315
  11.250   2.2471   0.03264   0.02596  -0.2332  0.4208  1.0000  -3.1355   0.0000   0.0000   0.0000   0.3286
  11.500   2.2704   0.03268   0.02594  -0.2327  0.4160  1.0000  -3.2253   0.0000   0.0000   0.0000   0.3267
  11.750   2.2558   0.03406   0.02754  -0.2262  0.4109  1.0000  -3.2482   0.0000   0.0000   0.0000   0.3239
  12.000   2.2725   0.03439   0.02786  -0.2247  0.4062  1.0000  -3.3330   0.0000   0.0000   0.0000   0.3219
  12.250   2.2661   0.03582   0.02947  -0.2200  0.4017  1.0000  -3.3733   0.0000   0.0000   0.0000   0.3195
  12.500   2.2721   0.03681   0.03055  -0.2173  0.3975  1.0000  -3.4378   0.0000   0.0000   0.0000   0.3174
  12.750   2.2838   0.03762   0.03142  -0.2154  0.3935  1.0000  -3.5141   0.0000   0.0000   0.0000   0.3155
  13.000   2.2737   0.03949   0.03347  -0.2108  0.3888  1.0000  -3.5503   0.0000   0.0000   0.0000   0.3133
  13.250   2.2941   0.03982   0.03378  -0.2101  0.3844  1.0000  -3.6534   0.0000   0.0000   0.0000   0.3115
  13.500   2.2730   0.04259   0.03680  -0.2048  0.3794  1.0000  -3.6659   0.0000   0.0000   0.0000   0.3094
  13.750   2.2928   0.04294   0.03712  -0.2041  0.3750  1.0000  -3.7691   0.0000   0.0000   0.0000   0.3077
  14.000   2.2688   0.04631   0.04074  -0.1992  0.3699  1.0000  -3.7743   0.0000   0.0000   0.0000   0.3058
  14.250   2.2838   0.04698   0.04142  -0.1981  0.3652  1.0000  -3.8837   0.0000   0.0000   0.0000   0.3041
  14.500   2.2600   0.05080   0.04547  -0.1941  0.3597  1.0000  -3.8952   0.0000   0.0000   0.0000   0.3025
  14.750   2.2731   0.05165   0.04630  -0.1930  0.3546  1.0000  -4.0116   0.0000   0.0000   0.0000   0.3008
  15.000   2.2466   0.05623   0.05112  -0.1896  0.3486  1.0000  -4.0141   0.0000   0.0000   0.0000   0.2996
  15.250   2.2445   0.05869   0.05366  -0.1879  0.3431  1.0000  -4.0870   0.0000   0.0000   0.0000   0.2982
  15.500   2.2341   0.06213   0.05723  -0.1860  0.3371  1.0000  -4.1354   0.0000   0.0000   0.0000   0.2970
  15.750   2.2177   0.06646   0.06171  -0.1842  0.3309  1.0000  -4.1655   0.0000   0.0000   0.0000   0.2961
  16.000   2.2204   0.06864   0.06392  -0.1832  0.3250  1.0000  -4.2551   0.0000   0.0000   0.0000   0.2948
  16.250   2.1986   0.07396   0.06941  -0.1818  0.3181  1.0000  -4.2705   0.0000   0.0000   0.0000   0.2942
  16.500   2.1813   0.07894   0.07453  -0.1809  0.3111  1.0000  -4.2997   0.0000   0.0000   0.0000   0.2936
  16.750   2.1729   0.08285   0.07852  -0.1802  0.3041  1.0000  -4.3581   0.0000   0.0000   0.0000   0.2929
  17.000   2.1711   0.08589   0.08159  -0.1797  0.2970  1.0000  -4.4388   0.0000   0.0000   0.0000   0.2919
  17.250   2.1478   0.09210   0.08796  -0.1795  0.2888  1.0000  -4.4445   0.0000   0.0000   0.0000   0.2919
  17.500   2.1301   0.09766   0.09364  -0.1795  0.2805  1.0000  -4.4932   0.0000   0.0000   0.0000   0.2919
  17.750   2.1150   0.10292   0.09899  -0.1798  0.2718  1.0000  -4.5537   0.0000   0.0000   0.0000   0.2918
  18.000   2.1020   0.10791   0.10405  -0.1802  0.2626  1.0000  -4.6238   0.0000   0.0000   0.0000   0.2917
  18.250   2.0907   0.11267   0.10886  -0.1808  0.2530  1.0000  -4.7018   0.0000   0.0000   0.0000   0.2916
  18.500   2.0804   0.11728   0.11349  -0.1814  0.2429  1.0000  -4.7891   0.0000   0.0000   0.0000   0.2916
  18.750   2.0660   0.12263   0.11889  -0.1825  0.2321  1.0000  -4.8496   0.0000   0.0000   0.0000   0.2919
  19.000   2.0522   0.12790   0.12420  -0.1838  0.2207  1.0000  -4.9106   0.0000   0.0000   0.0000   0.2923
  19.250   2.0417   0.13259   0.12887  -0.1850  0.2093  1.0000  -4.9912   0.0000   0.0000   0.0000   0.2926
  19.500   2.0309   0.13734   0.13360  -0.1864  0.1978  1.0000  -5.0673   0.0000   0.0000   0.0000   0.2929
  19.750   2.0192   0.14227   0.13852  -0.1880  0.1863  1.0000  -5.1351   0.0000   0.0000   0.0000   0.2935
  20.000   2.0099   0.14675   0.14294  -0.1896  0.1754  1.0000  -5.2180   0.0000   0.0000   0.0000   0.2939
  20.250   2.0019   0.15100   0.14713  -0.1912  0.1653  1.0000  -5.3070   0.0000   0.0000   0.0000   0.2943
  20.500   1.9938   0.15528   0.15139  -0.1929  0.1558  1.0000  -5.3941   0.0000   0.0000   0.0000   0.2947
  20.750   1.9872   0.15932   0.15541  -0.1947  0.1471  1.0000  -5.4896   0.0000   0.0000   0.0000   0.2951
  21.000   1.9818   0.16312   0.15918  -0.1964  0.1391  1.0000  -5.5936   0.0000   0.0000   0.0000   0.2954
  21.250   1.9774   0.16676   0.16280  -0.1982  0.1316  1.0000  -5.7034   0.0000   0.0000   0.0000   0.2957
  21.500   1.9736   0.17025   0.16629  -0.1999  0.1247  1.0000  -5.8174   0.0000   0.0000   0.0000   0.2960
  21.750   1.9707   0.17364   0.16967  -0.2017  0.1183  1.0000  -5.9374   0.0000   0.0000   0.0000   0.2962
  22.000   1.9686   0.17683   0.17283  -0.2035  0.1124  1.0000  -6.0642   0.0000   0.0000   0.0000   0.2964
  22.250   1.9668   0.17995   0.17595  -0.2053  0.1067  1.0000  -6.1931   0.0000   0.0000   0.0000   0.2965
  22.500   1.9640   0.18335   0.17940  -0.2073  0.1012  1.0000  -6.3123   0.0000   0.0000   0.0000   0.2968
  22.750   1.9622   0.18650   0.18259  -0.2092  0.0961  1.0000  -6.4394   0.0000   0.0000   0.0000   0.2971
  23.000   1.9613   0.18946   0.18557  -0.2111  0.0913  1.0000  -6.5740   0.0000   0.0000   0.0000   0.2972
  23.250   1.9611   0.19225   0.18835  -0.2129  0.0869  1.0000  -6.7167   0.0000   0.0000   0.0000   0.2972
  23.500   1.9602   0.19521   0.19133  -0.2150  0.0826  1.0000  -6.8522   0.0000   0.0000   0.0000   0.2974
  23.750   1.9581   0.19842   0.19463  -0.2172  0.0784  1.0000  -6.9753   0.0000   0.0000   0.0000   0.2978
  24.000   1.9570   0.20139   0.19763  -0.2194  0.0745  1.0000  -7.1089   0.0000   0.0000   0.0000   0.2981
  24.250   1.9572   0.20406   0.20028  -0.2214  0.0708  1.0000  -7.2566   0.0000   0.0000   0.0000   0.2981
  24.500   1.9550   0.20723   0.20351  -0.2238  0.0672  1.0000  -7.3799   0.0000   0.0000   0.0000   0.2986
  24.750   1.9527   0.21047   0.20683  -0.2263  0.0637  1.0000  -7.5036   0.0000   0.0000   0.0000   0.2991
  25.000   1.9513   0.21345   0.20985  -0.2287  0.0604  1.0000  -7.6435   0.0000   0.0000   0.0000   0.2995


