xflr5 v6.59

 Calculated polar for: TKV2008

 1 1 Reynolds number fixed          Mach number fixed         

 xtrf =   1.000 (top)        1.000 (bottom)
 Mach =   0.000     Re =     0.390 e 6     Ncrit =   9.000

  alpha     CL        CD       CDp       Cm    Top Xtr Bot Xtr   Cpmin    Chinge    XCp    
 ------- -------- --------- --------- -------- ------- ------- -------- --------- ---------
 -24.750  -0.4619   0.26635   0.26323   0.0025  1.0000  0.0088  -1.3846   0.0000   0.0000   0.0000   0.2141
 -24.500  -0.4548   0.26428   0.26118   0.0011  1.0000  0.0089  -1.3600   0.0000   0.0000   0.0000   0.2111
 -24.250  -0.4476   0.26223   0.25913  -0.0004  1.0000  0.0090  -1.3413   0.0000   0.0000   0.0000   0.2079
 -24.000  -0.4403   0.26009   0.25700  -0.0019  1.0000  0.0090  -1.3261   0.0000   0.0000   0.0000   0.2046
 -23.750  -0.4329   0.25804   0.25496  -0.0033  1.0000  0.0091  -1.3124   0.0000   0.0000   0.0000   0.2012
 -23.500  -0.4255   0.25593   0.25285  -0.0047  1.0000  0.0093  -1.2997   0.0000   0.0000   0.0000   0.1976
 -23.250  -0.4181   0.25379   0.25072  -0.0061  1.0000  0.0094  -1.2908   0.0000   0.0000   0.0000   0.1940
 -23.000  -0.4108   0.25163   0.24856  -0.0075  1.0000  0.0095  -1.2882   0.0000   0.0000   0.0000   0.1903
 -22.750  -0.4034   0.24944   0.24639  -0.0089  1.0000  0.0096  -1.2863   0.0000   0.0000   0.0000   0.1865
 -22.500  -0.3960   0.24725   0.24421  -0.0102  1.0000  0.0097  -1.2845   0.0000   0.0000   0.0000   0.1826
 -22.250  -0.3886   0.24504   0.24201  -0.0115  1.0000  0.0099  -1.2829   0.0000   0.0000   0.0000   0.1786
 -22.000  -0.3812   0.24282   0.23979  -0.0128  1.0000  0.0100  -1.2816   0.0000   0.0000   0.0000   0.1746
 -21.750  -0.3738   0.24060   0.23758  -0.0140  1.0000  0.0101  -1.2808   0.0000   0.0000   0.0000   0.1704
 -21.500  -0.3664   0.23835   0.23533  -0.0152  1.0000  0.0102  -1.2808   0.0000   0.0000   0.0000   0.1660
 -21.250  -0.3591   0.23611   0.23310  -0.0165  1.0000  0.0102  -1.2819   0.0000   0.0000   0.0000   0.1616
 -21.000  -0.3517   0.23380   0.23081  -0.0176  1.0000  0.0103  -1.2842   0.0000   0.0000   0.0000   0.1570
 -20.000  -0.3229   0.22467   0.22172  -0.0222  1.0000  0.0104  -1.3329   0.0000   0.0000   0.0000   0.1372
 -19.750  -0.3159   0.22247   0.21954  -0.0231  1.0000  0.0104  -1.3057   0.0000   0.0000   0.0000   0.1326
 -19.500  -0.3089   0.22032   0.21740  -0.0240  1.0000  0.0105  -1.2865   0.0000   0.0000   0.0000   0.1278
 -19.250  -0.3020   0.21816   0.21526  -0.0249  1.0000  0.0106  -1.2724   0.0000   0.0000   0.0000   0.1227
 -19.000  -0.2950   0.21602   0.21313  -0.0258  1.0000  0.0107  -1.2613   0.0000   0.0000   0.0000   0.1175
 -18.750  -0.2882   0.21385   0.21098  -0.0267  1.0000  0.0108  -1.2523   0.0000   0.0000   0.0000   0.1121
 -18.500  -0.2814   0.21167   0.20882  -0.0275  1.0000  0.0109  -1.2446   0.0000   0.0000   0.0000   0.1066
 -18.250  -0.2747   0.20949   0.20665  -0.0282  1.0000  0.0111  -1.2378   0.0000   0.0000   0.0000   0.1011
 -18.000  -0.2681   0.20730   0.20448  -0.0290  1.0000  0.0112  -1.2316   0.0000   0.0000   0.0000   0.0955
 -17.750  -0.2617   0.20511   0.20231  -0.0297  1.0000  0.0113  -1.2260   0.0000   0.0000   0.0000   0.0899
 -17.500  -0.2554   0.20292   0.20013  -0.0303  1.0000  0.0115  -1.2210   0.0000   0.0000   0.0000   0.0842
 -17.250  -0.2492   0.20074   0.19797  -0.0309  1.0000  0.0116  -1.2169   0.0000   0.0000   0.0000   0.0786
 -17.000  -0.2432   0.19856   0.19581  -0.0314  1.0000  0.0117  -1.2191   0.0000   0.0000   0.0000   0.0730
 -16.750  -0.2374   0.19635   0.19362  -0.0319  1.0000  0.0119  -1.2333   0.0000   0.0000   0.0000   0.0675
 -15.750  -0.2133   0.18740   0.18477  -0.0346  0.9996  0.0120  -1.3251   0.0000   0.0000   0.0000   0.0372
 -15.500  -0.1933   0.18369   0.18105  -0.0390  0.9980  0.0121  -1.2718   0.0000   0.0000   0.0000  -0.0074
 -15.250  -0.1730   0.18016   0.17752  -0.0436  0.9965  0.0122  -1.2365   0.0000   0.0000   0.0000  -0.0643
 -13.500   0.0402   0.15085   0.14822  -0.0873  0.9733  0.0138  -1.0552   0.0000   0.0000   0.0000   2.6634
 -13.250   0.0532   0.14758   0.14496  -0.0896  0.9694  0.0139  -1.0273   0.0000   0.0000   0.0000   2.1183
 -12.750   0.0194   0.14331   0.14061  -0.0861  0.9744  0.0139  -1.1539   0.0000   0.0000   0.0000   5.2345
 -12.000   0.1034   0.13254   0.12994  -0.0968  0.9215  0.0149  -1.0049   0.0000   0.0000   0.0000   1.2753
 -11.750   0.1205   0.12872   0.12610  -0.1003  0.9103  0.0152  -1.0100   0.0000   0.0000   0.0000   1.1588
 -11.500   0.1437   0.12421   0.12153  -0.1059  0.9009  0.0154  -1.0357   0.0000   0.0000   0.0000   1.0512
 -11.250   0.1735   0.11903   0.11628  -0.1137  0.8924  0.0155  -1.0645   0.0000   0.0000   0.0000   0.9593
 -11.000   0.2148   0.11328   0.11044  -0.1236  0.8829  0.0158  -0.9806   0.0000   0.0000   0.0000   0.8704
 -10.750   0.2650   0.10703   0.10405  -0.1366  0.8709  0.0162  -0.9269   0.0000   0.0000   0.0000   0.8034
 -10.500   0.3175   0.10078   0.09756  -0.1504  0.8494  0.0169  -0.9157   0.0000   0.0000   0.0000   0.7567
 -10.250   0.3441   0.09695   0.09345  -0.1570  0.8158  0.0173  -0.9836   0.0000   0.0000   0.0000   0.7369
 -10.000   0.3562   0.09452   0.09082  -0.1583  0.7889  0.0174  -0.9727   0.0000   0.0000   0.0000   0.7235
  -9.750   0.3655   0.09255   0.08871  -0.1585  0.7687  0.0176  -0.9368   0.0000   0.0000   0.0000   0.7114
  -9.500   0.3738   0.09060   0.08665  -0.1587  0.7529  0.0179  -0.9405   0.0000   0.0000   0.0000   0.7009
  -9.250   0.3820   0.08861   0.08458  -0.1589  0.7400  0.0182  -0.9481   0.0000   0.0000   0.0000   0.6911
  -9.000   0.3900   0.08659   0.08250  -0.1591  0.7284  0.0186  -0.9552   0.0000   0.0000   0.0000   0.6820
  -8.750   0.3977   0.08453   0.08038  -0.1594  0.7183  0.0189  -0.9618   0.0000   0.0000   0.0000   0.6736
  -8.500   0.4045   0.08244   0.07825  -0.1599  0.7092  0.0191  -0.9743   0.0000   0.0000   0.0000   0.6670
  -8.250   0.4115   0.08034   0.07609  -0.1603  0.7011  0.0193  -1.0035   0.0000   0.0000   0.0000   0.6603
  -8.000   0.4209   0.07834   0.07406  -0.1601  0.6928  0.0194  -0.9821   0.0000   0.0000   0.0000   0.6500
  -7.750   0.4297   0.07644   0.07213  -0.1601  0.6856  0.0197  -0.9907   0.0000   0.0000   0.0000   0.6413
  -7.250   0.4371   0.07521   0.07079  -0.1644  0.6822  0.0201  -1.0448   0.0000   0.0000   0.0000   0.6451
  -7.000   0.4456   0.07344   0.06898  -0.1647  0.6760  0.0205  -1.0524   0.0000   0.0000   0.0000   0.6374
  -6.750   0.4523   0.07164   0.06718  -0.1648  0.6695  0.0210  -1.0579   0.0000   0.0000   0.0000   0.6313
  -6.500   0.4564   0.06983   0.06534  -0.1653  0.6640  0.0212  -1.0914   0.0000   0.0000   0.0000   0.6281
  -6.250   0.4661   0.06813   0.06364  -0.1646  0.6578  0.0215  -1.0711   0.0000   0.0000   0.0000   0.6181
  -6.000   0.4742   0.06657   0.06204  -0.1643  0.6528  0.0218  -1.0801   0.0000   0.0000   0.0000   0.6104
  -5.750   0.4790   0.06507   0.06057  -0.1634  0.6473  0.0223  -1.0863   0.0000   0.0000   0.0000   0.6043
  -5.500   0.4825   0.06360   0.05908  -0.1626  0.6425  0.0229  -1.0909   0.0000   0.0000   0.0000   0.5994
  -5.250   0.4879   0.06168   0.05718  -0.1638  0.6377  0.0234  -1.1290   0.0000   0.0000   0.0000   0.5972
  -5.000   0.4985   0.06015   0.05565  -0.1632  0.6326  0.0238  -1.1051   0.0000   0.0000   0.0000   0.5881
  -4.750   0.5110   0.05844   0.05389  -0.1643  0.6283  0.0246  -1.1154   0.0000   0.0000   0.0000   0.5812
  -4.500   0.5238   0.05598   0.05146  -0.1682  0.6235  0.0255  -1.1664   0.0000   0.0000   0.0000   0.5801
  -4.250   0.5373   0.05418   0.04965  -0.1685  0.6192  0.0258  -1.1320   0.0000   0.0000   0.0000   0.5717
  -4.000   0.5540   0.05242   0.04785  -0.1700  0.6152  0.0264  -1.1455   0.0000   0.0000   0.0000   0.5641
  -3.750   0.5832   0.04884   0.04428  -0.1787  0.6108  0.0278  -1.2082   0.0000   0.0000   0.0000   0.5629
  -3.500   0.5980   0.04750   0.04290  -0.1781  0.6067  0.0282  -1.1738   0.0000   0.0000   0.0000   0.5534
  -3.250   0.6241   0.04527   0.04063  -0.1821  0.6027  0.0295  -1.1918   0.0000   0.0000   0.0000   0.5467
  -3.000   0.6580   0.04218   0.03752  -0.1890  0.5982  0.0307  -1.2118   0.0000   0.0000   0.0000   0.5413
  -2.750   0.7067   0.03839   0.03360  -0.1997  0.5943  0.0330  -1.2393   0.0000   0.0000   0.0000   0.5359
  -2.500   0.7863   0.03247   0.02744  -0.2187  0.5899  0.0382  -1.2805   0.0000   0.0000   0.0000   0.5307
  -1.250   1.0748   0.01631   0.00900  -0.2611  0.5695  0.0338  -1.4745   0.0000   0.0000   0.0000   0.4928
  -1.000   1.1096   0.01546   0.00785  -0.2625  0.5653  0.0331  -1.5036   0.0000   0.0000   0.0000   0.4859
  -0.750   1.1401   0.01511   0.00741  -0.2630  0.5613  0.0347  -1.5311   0.0000   0.0000   0.0000   0.4796
  -0.500   1.1717   0.01485   0.00703  -0.2638  0.5579  0.0366  -1.5596   0.0000   0.0000   0.0000   0.4735
  -0.250   1.2009   0.01459   0.00675  -0.2641  0.5539  0.0387  -1.5873   0.0000   0.0000   0.0000   0.4678
   0.000   1.2303   0.01442   0.00659  -0.2645  0.5498  0.0420  -1.6160   0.0000   0.0000   0.0000   0.4624
   0.250   1.2610   0.01434   0.00645  -0.2651  0.5463  0.0461  -1.6460   0.0000   0.0000   0.0000   0.4572
   0.500   1.2893   0.01425   0.00640  -0.2653  0.5422  0.0528  -1.6740   0.0000   0.0000   0.0000   0.4522
   0.750   1.3187   0.01416   0.00635  -0.2657  0.5384  0.0697  -1.7030   0.0000   0.0000   0.0000   0.4475
   1.000   1.3504   0.01402   0.00650  -0.2668  0.5352  0.2254  -1.7338   0.0000   0.0000   0.0000   0.4431
   1.250   1.3770   0.01411   0.00664  -0.2666  0.5314  0.2628  -1.7611   0.0000   0.0000   0.0000   0.4387
   1.500   1.4037   0.01419   0.00676  -0.2665  0.5276  0.2956  -1.7893   0.0000   0.0000   0.0000   0.4344
   1.750   1.4319   0.01427   0.00690  -0.2667  0.5243  0.3491  -1.8190   0.0000   0.0000   0.0000   0.4304
   2.000   1.4602   0.01419   0.00719  -0.2671  0.5205  0.5155  -1.8504   0.0000   0.0000   0.0000   0.4266
   2.250   1.4815   0.01386   0.00748  -0.2656  0.5168  0.8712  -1.8775   0.0000   0.0000   0.0000   0.4225
   2.750   1.5327   0.01417   0.00764  -0.2648  0.5101  1.0000  -1.9382   0.0000   0.0000   0.0000   0.4150
   3.000   1.5580   0.01435   0.00779  -0.2644  0.5063  1.0000  -1.9682   0.0000   0.0000   0.0000   0.4115
   3.250   1.5842   0.01456   0.00792  -0.2641  0.5029  1.0000  -1.9992   0.0000   0.0000   0.0000   0.4080
   3.500   1.6106   0.01480   0.00809  -0.2640  0.4997  1.0000  -2.0304   0.0000   0.0000   0.0000   0.4047
   3.750   1.6346   0.01499   0.00829  -0.2633  0.4958  1.0000  -2.0596   0.0000   0.0000   0.0000   0.4014
   4.000   1.6597   0.01520   0.00845  -0.2629  0.4923  1.0000  -2.0900   0.0000   0.0000   0.0000   0.3983
   4.250   1.6858   0.01546   0.00864  -0.2627  0.4891  1.0000  -2.1212   0.0000   0.0000   0.0000   0.3952
   4.500   1.7087   0.01567   0.00887  -0.2619  0.4852  1.0000  -2.1495   0.0000   0.0000   0.0000   0.3922
   4.750   1.7330   0.01589   0.00907  -0.2613  0.4818  1.0000  -2.1793   0.0000   0.0000   0.0000   0.3892
   5.000   1.7593   0.01617   0.00927  -0.2612  0.4788  1.0000  -2.2109   0.0000   0.0000   0.0000   0.3864
   5.250   1.7808   0.01640   0.00956  -0.2602  0.4750  1.0000  -2.2400   0.0000   0.0000   0.0000   0.3835
   5.500   1.8040   0.01664   0.00980  -0.2594  0.4715  1.0000  -2.2727   0.0000   0.0000   0.0000   0.3808
   5.750   1.8295   0.01693   0.01002  -0.2592  0.4686  1.0000  -2.3076   0.0000   0.0000   0.0000   0.3781
   6.000   1.8510   0.01720   0.01034  -0.2582  0.4652  1.0000  -2.3386   0.0000   0.0000   0.0000   0.3754
   6.250   1.8726   0.01747   0.01063  -0.2572  0.4618  1.0000  -2.3700   0.0000   0.0000   0.0000   0.3728
   6.500   1.8960   0.01775   0.01089  -0.2565  0.4587  1.0000  -2.4031   0.0000   0.0000   0.0000   0.3703
   6.750   1.9169   0.01806   0.01122  -0.2555  0.4554  1.0000  -2.4340   0.0000   0.0000   0.0000   0.3677
   7.000   1.9354   0.01835   0.01156  -0.2539  0.4516  1.0000  -2.4645   0.0000   0.0000   0.0000   0.3651
   7.250   1.9566   0.01865   0.01185  -0.2528  0.4484  1.0000  -2.4979   0.0000   0.0000   0.0000   0.3627
   7.500   1.9767   0.01900   0.01221  -0.2516  0.4451  1.0000  -2.5300   0.0000   0.0000   0.0000   0.3602
   7.750   1.9935   0.01933   0.01261  -0.2498  0.4414  1.0000  -2.5591   0.0000   0.0000   0.0000   0.3577
   8.000   2.0134   0.01967   0.01296  -0.2486  0.4382  1.0000  -2.5913   0.0000   0.0000   0.0000   0.3553
   8.250   2.0345   0.02006   0.01335  -0.2477  0.4352  1.0000  -2.6244   0.0000   0.0000   0.0000   0.3531
   8.500   2.0502   0.02046   0.01384  -0.2457  0.4317  1.0000  -2.6521   0.0000   0.0000   0.0000   0.3507
   8.750   2.0687   0.02085   0.01426  -0.2443  0.4285  1.0000  -2.6828   0.0000   0.0000   0.0000   0.3484
   9.000   2.0911   0.02126   0.01464  -0.2437  0.4256  1.0000  -2.7174   0.0000   0.0000   0.0000   0.3463
   9.250   2.1030   0.02175   0.01526  -0.2411  0.4219  1.0000  -2.7413   0.0000   0.0000   0.0000   0.3438
   9.500   2.1193   0.02222   0.01577  -0.2394  0.4184  1.0000  -2.7699   0.0000   0.0000   0.0000   0.3416
   9.750   2.1417   0.02264   0.01617  -0.2389  0.4155  1.0000  -2.8045   0.0000   0.0000   0.0000   0.3396
  10.000   2.1524   0.02325   0.01691  -0.2362  0.4121  1.0000  -2.8335   0.0000   0.0000   0.0000   0.3373
  10.250   2.1666   0.02380   0.01753  -0.2343  0.4085  1.0000  -2.8854   0.0000   0.0000   0.0000   0.3351
  10.500   2.1844   0.02432   0.01803  -0.2330  0.4048  1.0000  -2.9484   0.0000   0.0000   0.0000   0.3330
  10.750   2.1888   0.02513   0.01899  -0.2295  0.4000  1.0000  -2.9918   0.0000   0.0000   0.0000   0.3306
  11.000   2.2010   0.02580   0.01965  -0.2273  0.3955  1.0000  -3.0473   0.0000   0.0000   0.0000   0.3285
  11.250   2.2054   0.02675   0.02074  -0.2240  0.3905  1.0000  -3.0909   0.0000   0.0000   0.0000   0.3262
  11.500   2.2151   0.02759   0.02160  -0.2217  0.3860  1.0000  -3.1467   0.0000   0.0000   0.0000   0.3241
  11.750   2.2226   0.02859   0.02271  -0.2192  0.3817  1.0000  -3.2072   0.0000   0.0000   0.0000   0.3221
  12.000   2.2308   0.02961   0.02381  -0.2168  0.3776  1.0000  -3.2725   0.0000   0.0000   0.0000   0.3200
  12.250   2.2401   0.03064   0.02488  -0.2147  0.3735  1.0000  -3.3427   0.0000   0.0000   0.0000   0.3181
  12.500   2.2434   0.03200   0.02637  -0.2120  0.3686  1.0000  -3.4015   0.0000   0.0000   0.0000   0.3161
  12.750   2.2524   0.03314   0.02752  -0.2100  0.3645  1.0000  -3.4720   0.0000   0.0000   0.0000   0.3142
  13.000   2.2541   0.03477   0.02931  -0.2074  0.3597  1.0000  -3.5293   0.0000   0.0000   0.0000   0.3124
  13.250   2.2608   0.03616   0.03072  -0.2055  0.3554  1.0000  -3.6018   0.0000   0.0000   0.0000   0.3106
  13.500   2.2613   0.03807   0.03278  -0.2031  0.3503  1.0000  -3.6607   0.0000   0.0000   0.0000   0.3089
  13.750   2.2648   0.03984   0.03457  -0.2011  0.3454  1.0000  -3.7269   0.0000   0.0000   0.0000   0.3072
  14.000   2.2634   0.04212   0.03701  -0.1989  0.3397  1.0000  -3.7817   0.0000   0.0000   0.0000   0.3056
  14.250   2.2650   0.04422   0.03914  -0.1970  0.3348  1.0000  -3.8528   0.0000   0.0000   0.0000   0.3040
  14.500   2.2627   0.04681   0.04188  -0.1952  0.3290  1.0000  -3.9239   0.0000   0.0000   0.0000   0.3026
  14.750   2.2617   0.04936   0.04449  -0.1935  0.3237  1.0000  -3.9994   0.0000   0.0000   0.0000   0.3012
  15.000   2.2586   0.05222   0.04745  -0.1919  0.3178  1.0000  -4.0689   0.0000   0.0000   0.0000   0.2999
  15.250   2.2547   0.05528   0.05062  -0.1904  0.3119  1.0000  -4.1364   0.0000   0.0000   0.0000   0.2987
  15.500   2.2504   0.05844   0.05383  -0.1890  0.3061  1.0000  -4.2049   0.0000   0.0000   0.0000   0.2975
  15.750   2.2438   0.06201   0.05751  -0.1878  0.2995  1.0000  -4.2711   0.0000   0.0000   0.0000   0.2965
  16.000   2.2362   0.06578   0.06139  -0.1866  0.2928  1.0000  -4.3343   0.0000   0.0000   0.0000   0.2955
  16.250   2.2274   0.06980   0.06547  -0.1856  0.2858  1.0000  -4.3935   0.0000   0.0000   0.0000   0.2946
  16.500   2.2167   0.07413   0.06985  -0.1847  0.2785  1.0000  -4.4466   0.0000   0.0000   0.0000   0.2938
  16.750   2.2048   0.07878   0.07460  -0.1840  0.2703  1.0000  -4.4947   0.0000   0.0000   0.0000   0.2932
  17.000   2.1919   0.08363   0.07953  -0.1835  0.2620  1.0000  -4.5585   0.0000   0.0000   0.0000   0.2927
  17.250   2.1782   0.08866   0.08463  -0.1831  0.2533  1.0000  -4.6343   0.0000   0.0000   0.0000   0.2923
  17.500   2.1633   0.09394   0.08996  -0.1829  0.2439  1.0000  -4.7062   0.0000   0.0000   0.0000   0.2920
  17.750   2.1467   0.09951   0.09558  -0.1830  0.2338  1.0000  -4.7688   0.0000   0.0000   0.0000   0.2919
  18.000   2.1300   0.10519   0.10128  -0.1832  0.2230  1.0000  -4.8278   0.0000   0.0000   0.0000   0.2919
  18.250   2.1124   0.11102   0.10714  -0.1838  0.2116  1.0000  -4.8790   0.0000   0.0000   0.0000   0.2920
  18.500   2.0944   0.11693   0.11305  -0.1846  0.1998  1.0000  -4.9246   0.0000   0.0000   0.0000   0.2924
  18.750   2.0771   0.12277   0.11888  -0.1856  0.1879  1.0000  -4.9709   0.0000   0.0000   0.0000   0.2928
  19.000   2.0596   0.12865   0.12474  -0.1869  0.1759  1.0000  -5.0123   0.0000   0.0000   0.0000   0.2934
  19.250   2.0435   0.13431   0.13037  -0.1883  0.1650  1.0000  -5.0589   0.0000   0.0000   0.0000   0.2941
  19.500   2.0301   0.13955   0.13560  -0.1898  0.1548  1.0000  -5.1190   0.0000   0.0000   0.0000   0.2946
  19.750   2.0182   0.14455   0.14059  -0.1914  0.1457  1.0000  -5.1860   0.0000   0.0000   0.0000   0.2952
  20.000   2.0079   0.14927   0.14530  -0.1931  0.1375  1.0000  -5.2621   0.0000   0.0000   0.0000   0.2957
  20.250   1.9997   0.15368   0.14971  -0.1948  0.1299  1.0000  -5.3498   0.0000   0.0000   0.0000   0.2962
  20.500   1.9925   0.15790   0.15394  -0.1965  0.1228  1.0000  -5.4436   0.0000   0.0000   0.0000   0.2966
  20.750   1.9864   0.16195   0.15799  -0.1983  0.1164  1.0000  -5.5440   0.0000   0.0000   0.0000   0.2970
  21.000   1.9814   0.16580   0.16186  -0.2000  0.1103  1.0000  -5.6511   0.0000   0.0000   0.0000   0.2973
  21.250   1.9768   0.16956   0.16563  -0.2019  0.1046  1.0000  -5.7612   0.0000   0.0000   0.0000   0.2977
  21.500   1.9722   0.17332   0.16940  -0.2038  0.0993  1.0000  -5.8704   0.0000   0.0000   0.0000   0.2980
  21.750   1.9683   0.17695   0.17304  -0.2057  0.0942  1.0000  -5.9843   0.0000   0.0000   0.0000   0.2984
  22.000   1.9658   0.18036   0.17649  -0.2076  0.0890  1.0000  -6.1085   0.0000   0.0000   0.0000   0.2987
  22.250   1.9632   0.18374   0.17990  -0.2096  0.0842  1.0000  -6.2321   0.0000   0.0000   0.0000   0.2989
  22.500   1.9605   0.18713   0.18332  -0.2116  0.0796  1.0000  -6.3545   0.0000   0.0000   0.0000   0.2993
  22.750   1.9578   0.19054   0.18675  -0.2137  0.0752  1.0000  -6.4769   0.0000   0.0000   0.0000   0.2996
  23.000   1.9546   0.19399   0.19020  -0.2159  0.0713  1.0000  -6.5949   0.0000   0.0000   0.0000   0.3001
  23.250   1.9528   0.19720   0.19345  -0.2181  0.0672  1.0000  -6.7247   0.0000   0.0000   0.0000   0.3004
  23.500   1.9514   0.20034   0.19663  -0.2202  0.0634  1.0000  -6.8569   0.0000   0.0000   0.0000   0.3007
  23.750   1.9496   0.20347   0.19980  -0.2224  0.0599  1.0000  -6.9861   0.0000   0.0000   0.0000   0.3011
  24.000   1.9473   0.20674   0.20310  -0.2248  0.0566  1.0000  -7.1118   0.0000   0.0000   0.0000   0.3015
  24.250   1.9453   0.20993   0.20630  -0.2272  0.0535  1.0000  -7.2467   0.0000   0.0000   0.0000   0.3020
  24.500   1.9443   0.21294   0.20938  -0.2294  0.0505  1.0000  -7.3908   0.0000   0.0000   0.0000   0.3023
  24.750   1.9431   0.21593   0.21242  -0.2318  0.0478  1.0000  -7.5338   0.0000   0.0000   0.0000   0.3026
  25.000   1.9413   0.21903   0.21554  -0.2343  0.0453  1.0000  -7.6704   0.0000   0.0000   0.0000   0.3031


