xflr5 v6.59

 Calculated polar for: TKV2008

 1 1 Reynolds number fixed          Mach number fixed         

 xtrf =   1.000 (top)        1.000 (bottom)
 Mach =   0.000     Re =     0.430 e 6     Ncrit =   9.000

  alpha     CL        CD       CDp       Cm    Top Xtr Bot Xtr   Cpmin    Chinge    XCp    
 ------- -------- --------- --------- -------- ------- ------- -------- --------- ---------
 -25.000  -0.4704   0.26901   0.26605   0.0045  1.0000  0.0086  -1.3373   0.0000   0.0000   0.0000   0.2187
 -24.750  -0.4631   0.26677   0.26381   0.0030  1.0000  0.0086  -1.3324   0.0000   0.0000   0.0000   0.2155
 -23.250  -0.4189   0.25332   0.25040  -0.0059  1.0000  0.0088  -1.3804   0.0000   0.0000   0.0000   0.1943
 -23.000  -0.4117   0.25118   0.24826  -0.0072  1.0000  0.0089  -1.3537   0.0000   0.0000   0.0000   0.1910
 -22.750  -0.4044   0.24908   0.24617  -0.0085  1.0000  0.0089  -1.3345   0.0000   0.0000   0.0000   0.1874
 -22.500  -0.3971   0.24696   0.24406  -0.0098  1.0000  0.0090  -1.3202   0.0000   0.0000   0.0000   0.1836
 -22.250  -0.3898   0.24483   0.24194  -0.0111  1.0000  0.0091  -1.3087   0.0000   0.0000   0.0000   0.1798
 -22.000  -0.3824   0.24269   0.23981  -0.0124  1.0000  0.0092  -1.2990   0.0000   0.0000   0.0000   0.1758
 -21.750  -0.3750   0.24053   0.23766  -0.0136  1.0000  0.0093  -1.2903   0.0000   0.0000   0.0000   0.1716
 -21.500  -0.3677   0.23835   0.23548  -0.0149  1.0000  0.0094  -1.2821   0.0000   0.0000   0.0000   0.1674
 -21.250  -0.3604   0.23615   0.23330  -0.0161  1.0000  0.0095  -1.2743   0.0000   0.0000   0.0000   0.1631
 -21.000  -0.3530   0.23395   0.23110  -0.0172  1.0000  0.0096  -1.2666   0.0000   0.0000   0.0000   0.1587
 -20.750  -0.3457   0.23173   0.22889  -0.0184  1.0000  0.0097  -1.2590   0.0000   0.0000   0.0000   0.1541
 -20.500  -0.3385   0.22950   0.22667  -0.0195  1.0000  0.0099  -1.2516   0.0000   0.0000   0.0000   0.1495
 -18.250  -0.2759   0.20905   0.20634  -0.0281  1.0000  0.0104  -1.3234   0.0000   0.0000   0.0000   0.1021
 -18.000  -0.2694   0.20688   0.20420  -0.0287  1.0000  0.0105  -1.2925   0.0000   0.0000   0.0000   0.0971
 -17.750  -0.2631   0.20477   0.20210  -0.0293  1.0000  0.0105  -1.2697   0.0000   0.0000   0.0000   0.0919
 -17.500  -0.2568   0.20267   0.20002  -0.0299  1.0000  0.0106  -1.2517   0.0000   0.0000   0.0000   0.0865
 -17.250  -0.2506   0.20055   0.19792  -0.0305  1.0000  0.0107  -1.2367   0.0000   0.0000   0.0000   0.0811
 -17.000  -0.2447   0.19846   0.19585  -0.0310  1.0000  0.0108  -1.2271   0.0000   0.0000   0.0000   0.0758
 -16.750  -0.2389   0.19636   0.19377  -0.0314  1.0000  0.0110  -1.2246   0.0000   0.0000   0.0000   0.0706
 -16.500  -0.2334   0.19427   0.19171  -0.0318  1.0000  0.0111  -1.2232   0.0000   0.0000   0.0000   0.0656
 -16.250  -0.2281   0.19222   0.18968  -0.0321  1.0000  0.0113  -1.2233   0.0000   0.0000   0.0000   0.0609
 -16.000  -0.2190   0.18970   0.18717  -0.0336  0.9997  0.0114  -1.2228   0.0000   0.0000   0.0000   0.0471
 -15.750  -0.1990   0.18598   0.18345  -0.0383  0.9981  0.0116  -1.2193   0.0000   0.0000   0.0000   0.0031
 -15.500  -0.1790   0.18230   0.17976  -0.0430  0.9967  0.0118  -1.2209   0.0000   0.0000   0.0000  -0.0509
 -15.250  -0.1597   0.17852   0.17597  -0.0474  0.9948  0.0119  -1.2310   0.0000   0.0000   0.0000  -0.1154
 -15.000  -0.1402   0.17471   0.17215  -0.0521  0.9929  0.0120  -1.2525   0.0000   0.0000   0.0000  -0.1991
 -14.500  -0.1017   0.16725   0.16468  -0.0609  0.9894  0.0121  -1.2445   0.0000   0.0000   0.0000  -0.4568
 -14.250  -0.0830   0.16372   0.16115  -0.0649  0.9873  0.0122  -1.1999   0.0000   0.0000   0.0000  -0.6630
 -14.000  -0.0632   0.16016   0.15758  -0.0692  0.9858  0.0123  -1.1673   0.0000   0.0000   0.0000  -1.0174
 -13.750  -0.0445   0.15661   0.15403  -0.0732  0.9838  0.0125  -1.1426   0.0000   0.0000   0.0000  -1.6372
 -13.500  -0.0264   0.15305   0.15047  -0.0770  0.9812  0.0127  -1.1296   0.0000   0.0000   0.0000  -3.0738
 -13.250  -0.0061   0.14933   0.14674  -0.0815  0.9796  0.0130  -1.1250   0.0000   0.0000   0.0000  -14.7624
 -13.000   0.0112   0.14573   0.14314  -0.0850  0.9765  0.0133  -1.1264   0.0000   0.0000   0.0000   8.7817
 -12.000   0.0780   0.13143   0.12883  -0.0986  0.9597  0.0138  -1.1964   0.0000   0.0000   0.0000   1.6498
 -11.500   0.0878   0.12678   0.12422  -0.0973  0.9219  0.0140  -1.1405   0.0000   0.0000   0.0000   1.4712
 -11.250   0.1101   0.12289   0.12030  -0.1019  0.9089  0.0142  -1.1109   0.0000   0.0000   0.0000   1.2653
 -11.000   0.1423   0.11811   0.11545  -0.1094  0.8987  0.0145  -1.0833   0.0000   0.0000   0.0000   1.0893
 -10.750   0.1849   0.11249   0.10974  -0.1202  0.8893  0.0150  -1.0603   0.0000   0.0000   0.0000   0.9556
 -10.500   0.2376   0.10612   0.10322  -0.1345  0.8767  0.0154  -1.0886   0.0000   0.0000   0.0000   0.8609
 -10.250   0.2999   0.09955   0.09642  -0.1510  0.8567  0.0156  -1.0651   0.0000   0.0000   0.0000   0.7908
 -10.000   0.3387   0.09556   0.09210  -0.1600  0.8191  0.0160  -1.0140   0.0000   0.0000   0.0000   0.7558
  -8.250   0.4020   0.08221   0.07801  -0.1633  0.7048  0.0177  -1.0265   0.0000   0.0000   0.0000   0.6797
  -8.000   0.4108   0.08044   0.07620  -0.1635  0.6961  0.0180  -1.0212   0.0000   0.0000   0.0000   0.6703
  -7.750   0.4194   0.07865   0.07435  -0.1637  0.6884  0.0184  -1.0293   0.0000   0.0000   0.0000   0.6615
  -7.500   0.4276   0.07681   0.07250  -0.1639  0.6809  0.0188  -1.0369   0.0000   0.0000   0.0000   0.6535
  -7.250   0.4345   0.07492   0.07057  -0.1644  0.6744  0.0191  -1.0567   0.0000   0.0000   0.0000   0.6475
  -7.000   0.4403   0.07303   0.06867  -0.1647  0.6680  0.0193  -1.1030   0.0000   0.0000   0.0000   0.6422
  -6.750   0.4504   0.07131   0.06693  -0.1644  0.6620  0.0195  -1.0573   0.0000   0.0000   0.0000   0.6320
  -6.500   0.4586   0.06970   0.06530  -0.1642  0.6560  0.0198  -1.0656   0.0000   0.0000   0.0000   0.6240
  -6.250   0.4660   0.06807   0.06366  -0.1640  0.6507  0.0202  -1.0732   0.0000   0.0000   0.0000   0.6168
  -5.500   0.4759   0.06319   0.05880  -0.1622  0.6356  0.0213  -1.1276   0.0000   0.0000   0.0000   0.6034
  -5.250   0.4859   0.06164   0.05723  -0.1619  0.6307  0.0216  -1.0960   0.0000   0.0000   0.0000   0.5948
  -5.000   0.4958   0.06004   0.05562  -0.1622  0.6261  0.0221  -1.1051   0.0000   0.0000   0.0000   0.5878
  -4.750   0.5057   0.05805   0.05365  -0.1638  0.6213  0.0231  -1.1114   0.0000   0.0000   0.0000   0.5836
  -4.500   0.5190   0.05591   0.05147  -0.1658  0.6174  0.0235  -1.1340   0.0000   0.0000   0.0000   0.5784
  -4.250   0.5322   0.05426   0.04983  -0.1664  0.6130  0.0240  -1.1318   0.0000   0.0000   0.0000   0.5707
  -4.000   0.5482   0.05226   0.04783  -0.1685  0.6087  0.0247  -1.1432   0.0000   0.0000   0.0000   0.5646
  -3.750   0.5748   0.04905   0.04455  -0.1754  0.6051  0.0256  -1.1753   0.0000   0.0000   0.0000   0.5614
  -3.500   0.5913   0.04745   0.04298  -0.1760  0.6007  0.0261  -1.1717   0.0000   0.0000   0.0000   0.5533
  -2.750   0.7019   0.03797   0.03331  -0.1985  0.5884  0.0305  -1.2372   0.0000   0.0000   0.0000   0.5362
  -2.500   0.7528   0.03437   0.02960  -0.2086  0.5842  0.0331  -1.2677   0.0000   0.0000   0.0000   0.5297
  -2.250   0.8085   0.03097   0.02602  -0.2189  0.5804  0.0360  -1.3024   0.0000   0.0000   0.0000   0.5227
  -1.500   1.0410   0.01657   0.00949  -0.2595  0.5679  0.0327  -1.4465   0.0000   0.0000   0.0000   0.4996
  -1.250   1.0748   0.01561   0.00844  -0.2610  0.5637  0.0316  -1.4753   0.0000   0.0000   0.0000   0.4926
  -1.000   1.1091   0.01490   0.00747  -0.2623  0.5599  0.0313  -1.5047   0.0000   0.0000   0.0000   0.4858
  -0.750   1.1412   0.01456   0.00691  -0.2631  0.5563  0.0326  -1.5331   0.0000   0.0000   0.0000   0.4793
  -0.500   1.1704   0.01428   0.00665  -0.2634  0.5523  0.0347  -1.5600   0.0000   0.0000   0.0000   0.4734
  -0.250   1.2005   0.01405   0.00638  -0.2639  0.5485  0.0366  -1.5884   0.0000   0.0000   0.0000   0.4677
   0.000   1.2305   0.01395   0.00623  -0.2644  0.5449  0.0399  -1.6177   0.0000   0.0000   0.0000   0.4623
   0.250   1.2592   0.01381   0.00612  -0.2646  0.5407  0.0434  -1.6461   0.0000   0.0000   0.0000   0.4571
   0.500   1.2884   0.01375   0.00605  -0.2650  0.5370  0.0497  -1.6750   0.0000   0.0000   0.0000   0.4521
   0.750   1.3185   0.01373   0.00601  -0.2655  0.5337  0.0640  -1.7046   0.0000   0.0000   0.0000   0.4473
   1.000   1.3485   0.01351   0.00616  -0.2662  0.5299  0.2140  -1.7340   0.0000   0.0000   0.0000   0.4429
   1.250   1.3755   0.01361   0.00627  -0.2661  0.5263  0.2526  -1.7618   0.0000   0.0000   0.0000   0.4385
   1.500   1.4037   0.01375   0.00639  -0.2663  0.5231  0.2843  -1.7912   0.0000   0.0000   0.0000   0.4343
   1.750   1.4296   0.01379   0.00654  -0.2660  0.5191  0.3277  -1.8189   0.0000   0.0000   0.0000   0.4302
   2.000   1.4575   0.01376   0.00674  -0.2663  0.5153  0.4278  -1.8500   0.0000   0.0000   0.0000   0.4263
   2.250   1.4848   0.01357   0.00711  -0.2663  0.5122  0.7703  -1.8819   0.0000   0.0000   0.0000   0.4225
   2.500   1.5047   0.01343   0.00717  -0.2646  0.5085  1.0000  -1.9078   0.0000   0.0000   0.0000   0.4185
   2.750   1.5306   0.01361   0.00728  -0.2643  0.5049  1.0000  -1.9384   0.0000   0.0000   0.0000   0.4149
   3.000   1.5573   0.01383   0.00740  -0.2641  0.5018  1.0000  -1.9699   0.0000   0.0000   0.0000   0.4113
   3.250   1.5827   0.01403   0.00757  -0.2637  0.4982  1.0000  -2.0001   0.0000   0.0000   0.0000   0.4079
   3.500   1.6075   0.01421   0.00773  -0.2632  0.4945  1.0000  -2.0300   0.0000   0.0000   0.0000   0.4045
   3.750   1.6332   0.01443   0.00788  -0.2629  0.4912  1.0000  -2.0609   0.0000   0.0000   0.0000   0.4013
   4.000   1.6580   0.01465   0.00807  -0.2624  0.4877  1.0000  -2.0908   0.0000   0.0000   0.0000   0.3981
   4.250   1.6818   0.01485   0.00826  -0.2618  0.4838  1.0000  -2.1201   0.0000   0.0000   0.0000   0.3950
   4.500   1.7065   0.01508   0.00844  -0.2613  0.4806  1.0000  -2.1503   0.0000   0.0000   0.0000   0.3920
   4.750   1.7312   0.01533   0.00866  -0.2608  0.4773  1.0000  -2.1803   0.0000   0.0000   0.0000   0.3891
   5.000   1.7540   0.01554   0.00890  -0.2600  0.4737  1.0000  -2.2087   0.0000   0.0000   0.0000   0.3862
   5.250   1.7776   0.01578   0.00911  -0.2593  0.4704  1.0000  -2.2396   0.0000   0.0000   0.0000   0.3833
   5.500   1.8022   0.01606   0.00936  -0.2589  0.4673  1.0000  -2.2735   0.0000   0.0000   0.0000   0.3806
   5.750   1.8231   0.01630   0.00963  -0.2577  0.4638  1.0000  -2.3041   0.0000   0.0000   0.0000   0.3778
   6.000   1.8452   0.01655   0.00988  -0.2568  0.4606  1.0000  -2.3359   0.0000   0.0000   0.0000   0.3751
   6.250   1.8701   0.01686   0.01014  -0.2565  0.4577  1.0000  -2.3704   0.0000   0.0000   0.0000   0.3726
   6.500   1.8888   0.01712   0.01047  -0.2549  0.4541  1.0000  -2.3990   0.0000   0.0000   0.0000   0.3699
   6.750   1.9086   0.01740   0.01076  -0.2536  0.4505  1.0000  -2.4290   0.0000   0.0000   0.0000   0.3673
   7.000   1.9311   0.01772   0.01104  -0.2528  0.4474  1.0000  -2.4635   0.0000   0.0000   0.0000   0.3648
   7.250   1.9492   0.01803   0.01141  -0.2512  0.4438  1.0000  -2.4937   0.0000   0.0000   0.0000   0.3623
   7.500   1.9678   0.01834   0.01177  -0.2497  0.4403  1.0000  -2.5245   0.0000   0.0000   0.0000   0.3598
   7.750   1.9890   0.01869   0.01209  -0.2487  0.4371  1.0000  -2.5579   0.0000   0.0000   0.0000   0.3574
   8.000   2.0073   0.01906   0.01252  -0.2472  0.4338  1.0000  -2.5882   0.0000   0.0000   0.0000   0.3550
   8.250   2.0251   0.01943   0.01294  -0.2457  0.4305  1.0000  -2.6183   0.0000   0.0000   0.0000   0.3526
   8.500   2.0449   0.01981   0.01333  -0.2445  0.4275  1.0000  -2.6503   0.0000   0.0000   0.0000   0.3504
   8.750   2.0641   0.02023   0.01378  -0.2433  0.4243  1.0000  -2.6816   0.0000   0.0000   0.0000   0.3481
   9.000   2.0794   0.02067   0.01430  -0.2413  0.4207  1.0000  -2.7091   0.0000   0.0000   0.0000   0.3458
   9.250   2.0970   0.02111   0.01477  -0.2398  0.4175  1.0000  -2.7390   0.0000   0.0000   0.0000   0.3435
   9.500   2.1157   0.02159   0.01526  -0.2386  0.4144  1.0000  -2.7699   0.0000   0.0000   0.0000   0.3414
   9.750   2.1298   0.02212   0.01589  -0.2365  0.4109  1.0000  -2.7958   0.0000   0.0000   0.0000   0.3391
  10.000   2.1461   0.02263   0.01644  -0.2349  0.4077  1.0000  -2.8276   0.0000   0.0000   0.0000   0.3370
  10.250   2.1629   0.02318   0.01700  -0.2334  0.4042  1.0000  -2.8823   0.0000   0.0000   0.0000   0.3349
  10.500   2.1717   0.02387   0.01781  -0.2306  0.3997  1.0000  -2.9318   0.0000   0.0000   0.0000   0.3326
  10.750   2.1849   0.02452   0.01845  -0.2286  0.3953  1.0000  -2.9884   0.0000   0.0000   0.0000   0.3304
  11.000   2.1914   0.02538   0.01944  -0.2256  0.3904  1.0000  -3.0350   0.0000   0.0000   0.0000   0.3282
  11.250   2.2017   0.02619   0.02026  -0.2233  0.3858  1.0000  -3.0875   0.0000   0.0000   0.0000   0.3261
  11.500   2.2097   0.02714   0.02132  -0.2208  0.3812  1.0000  -3.1389   0.0000   0.0000   0.0000   0.3240
  11.750   2.2190   0.02808   0.02233  -0.2185  0.3771  1.0000  -3.2024   0.0000   0.0000   0.0000   0.3219
  12.000   2.2288   0.02908   0.02338  -0.2165  0.3731  1.0000  -3.2709   0.0000   0.0000   0.0000   0.3200
  12.250   2.2347   0.03028   0.02469  -0.2140  0.3683  1.0000  -3.3342   0.0000   0.0000   0.0000   0.3180
  12.500   2.2429   0.03145   0.02588  -0.2119  0.3641  1.0000  -3.4027   0.0000   0.0000   0.0000   0.3161
  12.750   2.2477   0.03286   0.02743  -0.2095  0.3594  1.0000  -3.4643   0.0000   0.0000   0.0000   0.3142
  13.000   2.2548   0.03421   0.02879  -0.2075  0.3553  1.0000  -3.5330   0.0000   0.0000   0.0000   0.3124
  13.250   2.2579   0.03589   0.03062  -0.2053  0.3503  1.0000  -3.5973   0.0000   0.0000   0.0000   0.3106
  13.500   2.2617   0.03761   0.03236  -0.2032  0.3454  1.0000  -3.6638   0.0000   0.0000   0.0000   0.3089
  13.750   2.2631   0.03961   0.03450  -0.2012  0.3399  1.0000  -3.7249   0.0000   0.0000   0.0000   0.3073
  14.000   2.2650   0.04165   0.03656  -0.1992  0.3350  1.0000  -3.7875   0.0000   0.0000   0.0000   0.3057
  14.250   2.2653   0.04395   0.03901  -0.1974  0.3292  1.0000  -3.8553   0.0000   0.0000   0.0000   0.3042
  14.500   2.2652   0.04634   0.04146  -0.1956  0.3241  1.0000  -3.9332   0.0000   0.0000   0.0000   0.3027
  14.750   2.2638   0.04899   0.04420  -0.1940  0.3183  1.0000  -4.0074   0.0000   0.0000   0.0000   0.3013
  15.000   2.2618   0.05177   0.04708  -0.1925  0.3126  1.0000  -4.0802   0.0000   0.0000   0.0000   0.3000
  15.250   2.2579   0.05483   0.05019  -0.1909  0.3068  1.0000  -4.1479   0.0000   0.0000   0.0000   0.2988
  15.500   2.2537   0.05806   0.05354  -0.1896  0.3005  1.0000  -4.2188   0.0000   0.0000   0.0000   0.2976
  15.750   2.2476   0.06158   0.05714  -0.1884  0.2941  1.0000  -4.2867   0.0000   0.0000   0.0000   0.2966
  16.000   2.2394   0.06543   0.06104  -0.1872  0.2873  1.0000  -4.3484   0.0000   0.0000   0.0000   0.2956
  16.250   2.2302   0.06954   0.06525  -0.1862  0.2798  1.0000  -4.4064   0.0000   0.0000   0.0000   0.2947
  16.500   2.2199   0.07388   0.06967  -0.1853  0.2720  1.0000  -4.4607   0.0000   0.0000   0.0000   0.2940
  16.750   2.2083   0.07848   0.07435  -0.1846  0.2639  1.0000  -4.5103   0.0000   0.0000   0.0000   0.2933
  17.000   2.1952   0.08336   0.07929  -0.1840  0.2555  1.0000  -4.5794   0.0000   0.0000   0.0000   0.2928
  17.250   2.1808   0.08850   0.08448  -0.1836  0.2464  1.0000  -4.6525   0.0000   0.0000   0.0000   0.2924
  17.500   2.1647   0.09397   0.09000  -0.1834  0.2363  1.0000  -4.7196   0.0000   0.0000   0.0000   0.2921
  17.750   2.1468   0.09974   0.09580  -0.1835  0.2258  1.0000  -4.7753   0.0000   0.0000   0.0000   0.2921
  18.000   2.1284   0.10567   0.10174  -0.1838  0.2148  1.0000  -4.8252   0.0000   0.0000   0.0000   0.2922
  18.250   2.1109   0.11150   0.10759  -0.1843  0.2030  1.0000  -4.8770   0.0000   0.0000   0.0000   0.2923
  18.500   2.0915   0.11764   0.11372  -0.1851  0.1912  1.0000  -4.9142   0.0000   0.0000   0.0000   0.2928
  18.750   2.0742   0.12349   0.11957  -0.1862  0.1789  1.0000  -4.9603   0.0000   0.0000   0.0000   0.2932
  19.000   2.0569   0.12935   0.12541  -0.1874  0.1676  1.0000  -5.0021   0.0000   0.0000   0.0000   0.2938
  19.250   2.0409   0.13501   0.13103  -0.1889  0.1575  1.0000  -5.0490   0.0000   0.0000   0.0000   0.2945
  19.500   2.0283   0.14014   0.13616  -0.1904  0.1479  1.0000  -5.1140   0.0000   0.0000   0.0000   0.2950
  19.750   2.0172   0.14502   0.14104  -0.1920  0.1393  1.0000  -5.1861   0.0000   0.0000   0.0000   0.2955
  20.000   2.0081   0.14957   0.14559  -0.1936  0.1315  1.0000  -5.2701   0.0000   0.0000   0.0000   0.2959
  20.250   2.0003   0.15391   0.14993  -0.1952  0.1242  1.0000  -5.3612   0.0000   0.0000   0.0000   0.2963
  20.500   1.9934   0.15808   0.15411  -0.1969  0.1177  1.0000  -5.4575   0.0000   0.0000   0.0000   0.2967
  20.750   1.9874   0.16213   0.15817  -0.1987  0.1116  1.0000  -5.5585   0.0000   0.0000   0.0000   0.2971
  21.000   1.9821   0.16604   0.16209  -0.2005  0.1057  1.0000  -5.6641   0.0000   0.0000   0.0000   0.2975
  21.250   1.9771   0.16987   0.16592  -0.2023  0.1003  1.0000  -5.7715   0.0000   0.0000   0.0000   0.2979
  21.500   1.9742   0.17338   0.16946  -0.2041  0.0949  1.0000  -5.8931   0.0000   0.0000   0.0000   0.2981
  21.750   1.9710   0.17688   0.17300  -0.2060  0.0898  1.0000  -6.0136   0.0000   0.0000   0.0000   0.2984
  22.000   1.9679   0.18038   0.17653  -0.2079  0.0849  1.0000  -6.1338   0.0000   0.0000   0.0000   0.2987
  22.250   1.9651   0.18380   0.17997  -0.2099  0.0803  1.0000  -6.2566   0.0000   0.0000   0.0000   0.2990
  22.500   1.9620   0.18728   0.18346  -0.2119  0.0759  1.0000  -6.3766   0.0000   0.0000   0.0000   0.2994
  22.750   1.9589   0.19074   0.18693  -0.2141  0.0718  1.0000  -6.4957   0.0000   0.0000   0.0000   0.2998
  23.000   1.9575   0.19389   0.19013  -0.2161  0.0676  1.0000  -6.6293   0.0000   0.0000   0.0000   0.3000
  23.250   1.9556   0.19710   0.19337  -0.2182  0.0638  1.0000  -6.7591   0.0000   0.0000   0.0000   0.3003
  23.500   1.9535   0.20034   0.19665  -0.2204  0.0602  1.0000  -6.8867   0.0000   0.0000   0.0000   0.3007
  23.750   1.9514   0.20358   0.19990  -0.2227  0.0568  1.0000  -7.0136   0.0000   0.0000   0.0000   0.3011
  24.000   1.9493   0.20679   0.20315  -0.2250  0.0537  1.0000  -7.1454   0.0000   0.0000   0.0000   0.3015
  24.250   1.9484   0.20976   0.20617  -0.2272  0.0506  1.0000  -7.2918   0.0000   0.0000   0.0000   0.3018
  24.500   1.9472   0.21280   0.20925  -0.2295  0.0479  1.0000  -7.4355   0.0000   0.0000   0.0000   0.3021
  24.750   1.9452   0.21595   0.21242  -0.2319  0.0454  1.0000  -7.5715   0.0000   0.0000   0.0000   0.3026
  25.000   1.9441   0.21890   0.21542  -0.2343  0.0429  1.0000  -7.7165   0.0000   0.0000   0.0000   0.3029


