xflr5 v6.59

 Calculated polar for: TKV2008

 1 1 Reynolds number fixed          Mach number fixed         

 xtrf =   1.000 (top)        1.000 (bottom)
 Mach =   0.000     Re =     0.370 e 6     Ncrit =   9.000

  alpha     CL        CD       CDp       Cm    Top Xtr Bot Xtr   Cpmin    Chinge    XCp    
 ------- -------- --------- --------- -------- ------- ------- -------- --------- ---------
 -25.000  -0.4689   0.26873   0.26553   0.0040  1.0000  0.0090  -1.3506   0.0000   0.0000   0.0000   0.2172
 -24.750  -0.4617   0.26667   0.26347   0.0024  1.0000  0.0091  -1.3339   0.0000   0.0000   0.0000   0.2141
 -24.500  -0.4544   0.26458   0.26139   0.0009  1.0000  0.0092  -1.3224   0.0000   0.0000   0.0000   0.2108
 -24.250  -0.4470   0.26247   0.25929  -0.0006  1.0000  0.0093  -1.3138   0.0000   0.0000   0.0000   0.2075
 -24.000  -0.4397   0.26034   0.25716  -0.0021  1.0000  0.0094  -1.3056   0.0000   0.0000   0.0000   0.2041
 -23.750  -0.4323   0.25818   0.25501  -0.0035  1.0000  0.0096  -1.2974   0.0000   0.0000   0.0000   0.2007
 -23.500  -0.4249   0.25602   0.25286  -0.0049  1.0000  0.0097  -1.2892   0.0000   0.0000   0.0000   0.1971
 -23.250  -0.4175   0.25384   0.25068  -0.0063  1.0000  0.0099  -1.2836   0.0000   0.0000   0.0000   0.1935
 -23.000  -0.4101   0.25164   0.24849  -0.0077  1.0000  0.0100  -1.2850   0.0000   0.0000   0.0000   0.1897
 -22.750  -0.4027   0.24942   0.24628  -0.0091  1.0000  0.0101  -1.2870   0.0000   0.0000   0.0000   0.1859
 -22.500  -0.3953   0.24719   0.24406  -0.0104  1.0000  0.0102  -1.2900   0.0000   0.0000   0.0000   0.1820
 -22.250  -0.3879   0.24496   0.24184  -0.0117  1.0000  0.0102  -1.2940   0.0000   0.0000   0.0000   0.1779
 -22.000  -0.3804   0.24271   0.23959  -0.0130  1.0000  0.0103  -1.2991   0.0000   0.0000   0.0000   0.1737
 -21.000  -0.3511   0.23363   0.23055  -0.0181  1.0000  0.0104  -1.3413   0.0000   0.0000   0.0000   0.1553
 -20.750  -0.3440   0.23139   0.22833  -0.0191  1.0000  0.0104  -1.3063   0.0000   0.0000   0.0000   0.1513
 -20.500  -0.3368   0.22923   0.22618  -0.0201  1.0000  0.0105  -1.2852   0.0000   0.0000   0.0000   0.1468
 -20.250  -0.3297   0.22707   0.22403  -0.0212  1.0000  0.0106  -1.2721   0.0000   0.0000   0.0000   0.1421
 -20.000  -0.3225   0.22494   0.22191  -0.0222  1.0000  0.0107  -1.2632   0.0000   0.0000   0.0000   0.1373
 -19.750  -0.3154   0.22277   0.21976  -0.0232  1.0000  0.0108  -1.2563   0.0000   0.0000   0.0000   0.1322
 -19.500  -0.3083   0.22059   0.21759  -0.0242  1.0000  0.0109  -1.2507   0.0000   0.0000   0.0000   0.1271
 -19.250  -0.3013   0.21839   0.21541  -0.0251  1.0000  0.0110  -1.2461   0.0000   0.0000   0.0000   0.1219
 -19.000  -0.2943   0.21619   0.21322  -0.0260  1.0000  0.0112  -1.2421   0.0000   0.0000   0.0000   0.1165
 -18.750  -0.2875   0.21398   0.21102  -0.0269  1.0000  0.0113  -1.2387   0.0000   0.0000   0.0000   0.1111
 -18.500  -0.2807   0.21175   0.20882  -0.0277  1.0000  0.0114  -1.2358   0.0000   0.0000   0.0000   0.1055
 -18.250  -0.2740   0.20954   0.20662  -0.0285  1.0000  0.0116  -1.2336   0.0000   0.0000   0.0000   0.0999
 -14.000   0.0092   0.15848   0.15581  -0.0802  0.9788  0.0138  -1.0343   0.0000   0.0000   0.0000   9.9682
 -13.750   0.0213   0.15524   0.15257  -0.0824  0.9750  0.0140  -1.0127   0.0000   0.0000   0.0000   4.5681
 -13.500   0.0365   0.15178   0.14911  -0.0858  0.9734  0.0142  -1.0005   0.0000   0.0000   0.0000   2.8623
 -13.250   0.0497   0.14844   0.14577  -0.0884  0.9698  0.0144  -0.9961   0.0000   0.0000   0.0000   2.2226
 -13.000   0.0645   0.14494   0.14225  -0.0915  0.9669  0.0147  -0.9953   0.0000   0.0000   0.0000   1.8184
 -12.750   0.0765   0.14166   0.13898  -0.0937  0.9615  0.0149  -0.9981   0.0000   0.0000   0.0000   1.5994
 -12.500   0.0878   0.13842   0.13574  -0.0956  0.9546  0.0151  -1.0053   0.0000   0.0000   0.0000   1.4473
 -12.250   0.0971   0.13538   0.13271  -0.0969  0.9445  0.0153  -1.0215   0.0000   0.0000   0.0000   1.3442
 -11.500   0.0812   0.12812   0.12540  -0.0960  0.9319  0.0154  -1.1713   0.0000   0.0000   0.0000   1.5544
 -11.250   0.0943   0.12486   0.12213  -0.0983  0.9158  0.0155  -1.1911   0.0000   0.0000   0.0000   1.3962
 -11.000   0.1184   0.12077   0.11801  -0.1029  0.9042  0.0157  -1.1261   0.0000   0.0000   0.0000   1.2017
 -10.750   0.1509   0.11610   0.11327  -0.1104  0.8946  0.0160  -1.0807   0.0000   0.0000   0.0000   1.0463
 -10.500   0.1927   0.11070   0.10778  -0.1207  0.8849  0.0165  -1.0449   0.0000   0.0000   0.0000   0.9284
 -10.250   0.2446   0.10465   0.10157  -0.1342  0.8729  0.0171  -1.0403   0.0000   0.0000   0.0000   0.8414
 -10.000   0.3033   0.09831   0.09502  -0.1502  0.8544  0.0174  -1.0752   0.0000   0.0000   0.0000   0.7810
  -9.750   0.3438   0.09421   0.09062  -0.1594  0.8216  0.0179  -1.0072   0.0000   0.0000   0.0000   0.7457
  -9.500   0.3596   0.09193   0.08811  -0.1617  0.7927  0.0183  -0.9957   0.0000   0.0000   0.0000   0.7298
  -9.250   0.3697   0.08999   0.08602  -0.1624  0.7719  0.0186  -0.9978   0.0000   0.0000   0.0000   0.7181
  -9.000   0.3783   0.08809   0.08401  -0.1629  0.7555  0.0190  -1.0141   0.0000   0.0000   0.0000   0.7080
  -8.750   0.3857   0.08620   0.08204  -0.1636  0.7421  0.0192  -1.0651   0.0000   0.0000   0.0000   0.7001
  -8.500   0.3935   0.08428   0.08004  -0.1640  0.7305  0.0193  -1.0842   0.0000   0.0000   0.0000   0.6916
  -8.250   0.4033   0.08243   0.07813  -0.1639  0.7200  0.0195  -1.0324   0.0000   0.0000   0.0000   0.6799
  -7.500   0.4297   0.07712   0.07269  -0.1645  0.6940  0.0206  -1.0372   0.0000   0.0000   0.0000   0.6528
  -7.250   0.4374   0.07528   0.07081  -0.1649  0.6870  0.0210  -1.0435   0.0000   0.0000   0.0000   0.6460
  -7.000   0.4422   0.07346   0.06898  -0.1655  0.6803  0.0212  -1.0916   0.0000   0.0000   0.0000   0.6423
  -6.750   0.4530   0.07165   0.06714  -0.1651  0.6739  0.0215  -1.0576   0.0000   0.0000   0.0000   0.6315
  -6.500   0.4616   0.07002   0.06549  -0.1650  0.6677  0.0218  -1.0661   0.0000   0.0000   0.0000   0.6233
  -6.250   0.4692   0.06838   0.06384  -0.1648  0.6620  0.0223  -1.0738   0.0000   0.0000   0.0000   0.6162
  -6.000   0.4748   0.06673   0.06218  -0.1645  0.6563  0.0229  -1.0798   0.0000   0.0000   0.0000   0.6105
  -5.750   0.4724   0.06526   0.06071  -0.1641  0.6516  0.0233  -1.1334   0.0000   0.0000   0.0000   0.6107
  -5.500   0.4820   0.06361   0.05907  -0.1631  0.6462  0.0236  -1.0891   0.0000   0.0000   0.0000   0.6007
  -5.250   0.4924   0.06206   0.05748  -0.1632  0.6415  0.0241  -1.0992   0.0000   0.0000   0.0000   0.5929
  -5.000   0.5011   0.06036   0.05580  -0.1637  0.6364  0.0250  -1.1064   0.0000   0.0000   0.0000   0.5874
  -4.750   0.5116   0.05815   0.05358  -0.1663  0.6317  0.0256  -1.1308   0.0000   0.0000   0.0000   0.5849
  -4.500   0.5251   0.05652   0.05192  -0.1665  0.6273  0.0260  -1.1241   0.0000   0.0000   0.0000   0.5760
  -4.250   0.5383   0.05472   0.05014  -0.1677  0.6225  0.0267  -1.1342   0.0000   0.0000   0.0000   0.5696
  -4.000   0.5617   0.05167   0.04705  -0.1745  0.6185  0.0278  -1.1675   0.0000   0.0000   0.0000   0.5679
  -3.750   0.5768   0.05016   0.04553  -0.1743  0.6144  0.0283  -1.1595   0.0000   0.0000   0.0000   0.5587
  -3.500   0.5980   0.04802   0.04339  -0.1775  0.6098  0.0295  -1.1746   0.0000   0.0000   0.0000   0.5524
  -3.250   0.6295   0.04504   0.04034  -0.1841  0.6060  0.0306  -1.1931   0.0000   0.0000   0.0000   0.5473
  -3.000   0.6745   0.04114   0.03637  -0.1948  0.6017  0.0329  -1.2168   0.0000   0.0000   0.0000   0.5429
  -2.750   0.7209   0.03758   0.03271  -0.2044  0.5972  0.0355  -1.2438   0.0000   0.0000   0.0000   0.5368
  -1.250   1.0644   0.01178   0.00448  -0.2567  0.5701  0.0348  -1.4447   0.0000   0.0000   0.0000   0.4908
  -1.000   1.0983   0.01109   0.00357  -0.2581  0.5661  0.0346  -1.4737   0.0000   0.0000   0.0000   0.4841
  -0.750   1.1291   0.01070   0.00306  -0.2588  0.5620  0.0364  -1.5013   0.0000   0.0000   0.0000   0.4778
  -0.500   1.1606   0.01042   0.00260  -0.2595  0.5586  0.0381  -1.5298   0.0000   0.0000   0.0000   0.4718
  -0.250   1.1899   0.01018   0.00238  -0.2599  0.5546  0.0409  -1.5582   0.0000   0.0000   0.0000   0.4662
   0.000   1.2191   0.00998   0.00219  -0.2603  0.5505  0.0441  -1.5867   0.0000   0.0000   0.0000   0.4608
   0.250   1.2495   0.00986   0.00205  -0.2610  0.5469  0.0490  -1.6163   0.0000   0.0000   0.0000   0.4556
   0.500   1.2784   0.00977   0.00198  -0.2613  0.5429  0.0569  -1.6446   0.0000   0.0000   0.0000   0.4507
   0.750   1.3093   0.00955   0.00192  -0.2622  0.5390  0.1088  -1.6743   0.0000   0.0000   0.0000   0.4461
   1.000   1.3386   0.00954   0.00209  -0.2627  0.5357  0.2399  -1.7035   0.0000   0.0000   0.0000   0.4416
   1.250   1.3654   0.00963   0.00221  -0.2626  0.5321  0.2749  -1.7310   0.0000   0.0000   0.0000   0.4373
   1.500   1.3917   0.00969   0.00233  -0.2625  0.5282  0.3121  -1.7589   0.0000   0.0000   0.0000   0.4331
   2.000   1.4624   0.01442   0.00744  -0.2677  0.5235  0.5880  -1.8512   0.0000   0.0000   0.0000   0.4267
   2.500   1.5062   0.01424   0.00772  -0.2651  0.5159  1.0000  -1.9060   0.0000   0.0000   0.0000   0.4187
   2.750   1.5338   0.01447   0.00782  -0.2651  0.5128  1.0000  -1.9380   0.0000   0.0000   0.0000   0.4151
   3.000   1.5593   0.01468   0.00800  -0.2647  0.5092  1.0000  -1.9682   0.0000   0.0000   0.0000   0.4116
   3.250   1.5847   0.01488   0.00816  -0.2643  0.5054  1.0000  -1.9983   0.0000   0.0000   0.0000   0.4081
   3.500   1.6111   0.01510   0.00830  -0.2642  0.5022  1.0000  -2.0297   0.0000   0.0000   0.0000   0.4048
   3.750   1.6364   0.01533   0.00850  -0.2638  0.4987  1.0000  -2.0599   0.0000   0.0000   0.0000   0.4016
   4.000   1.6606   0.01554   0.00870  -0.2632  0.4948  1.0000  -2.0893   0.0000   0.0000   0.0000   0.3984
   4.250   1.6861   0.01576   0.00887  -0.2629  0.4915  1.0000  -2.1201   0.0000   0.0000   0.0000   0.3953
   4.500   1.7111   0.01602   0.00909  -0.2624  0.4881  1.0000  -2.1502   0.0000   0.0000   0.0000   0.3923
   4.750   1.7343   0.01624   0.00933  -0.2617  0.4843  1.0000  -2.1788   0.0000   0.0000   0.0000   0.3893
   5.000   1.7590   0.01648   0.00953  -0.2612  0.4810  1.0000  -2.2089   0.0000   0.0000   0.0000   0.3865
   5.250   1.7841   0.01676   0.00977  -0.2609  0.4779  1.0000  -2.2418   0.0000   0.0000   0.0000   0.3837
   5.500   1.8058   0.01700   0.01007  -0.2599  0.4741  1.0000  -2.2729   0.0000   0.0000   0.0000   0.3809
   5.750   1.8294   0.01726   0.01031  -0.2593  0.4708  1.0000  -2.3061   0.0000   0.0000   0.0000   0.3782
   6.000   1.8557   0.01757   0.01055  -0.2592  0.4680  1.0000  -2.3416   0.0000   0.0000   0.0000   0.3757
   6.250   1.8756   0.01784   0.01091  -0.2579  0.4644  1.0000  -2.3711   0.0000   0.0000   0.0000   0.3730
   6.500   1.8976   0.01812   0.01119  -0.2570  0.4610  1.0000  -2.4029   0.0000   0.0000   0.0000   0.3704
   6.750   1.9224   0.01843   0.01145  -0.2567  0.4580  1.0000  -2.4377   0.0000   0.0000   0.0000   0.3680
   7.000   1.9403   0.01874   0.01183  -0.2550  0.4543  1.0000  -2.4675   0.0000   0.0000   0.0000   0.3654
   7.250   1.9593   0.01904   0.01216  -0.2535  0.4507  1.0000  -2.4987   0.0000   0.0000   0.0000   0.3628
   7.500   1.9821   0.01936   0.01245  -0.2528  0.4476  1.0000  -2.5336   0.0000   0.0000   0.0000   0.3605
   7.750   1.9989   0.01971   0.01288  -0.2510  0.4440  1.0000  -2.5625   0.0000   0.0000   0.0000   0.3580
   8.000   2.0163   0.02006   0.01328  -0.2493  0.4404  1.0000  -2.5922   0.0000   0.0000   0.0000   0.3555
   8.250   2.0378   0.02041   0.01362  -0.2484  0.4375  1.0000  -2.6258   0.0000   0.0000   0.0000   0.3532
   8.500   2.0563   0.02082   0.01408  -0.2470  0.4343  1.0000  -2.6562   0.0000   0.0000   0.0000   0.3509
   8.750   2.0721   0.02124   0.01458  -0.2451  0.4309  1.0000  -2.6841   0.0000   0.0000   0.0000   0.3486
   9.000   2.0913   0.02163   0.01499  -0.2438  0.4277  1.0000  -2.7156   0.0000   0.0000   0.0000   0.3463
   9.250   2.1103   0.02208   0.01546  -0.2426  0.4245  1.0000  -2.7467   0.0000   0.0000   0.0000   0.3441
   9.500   2.1228   0.02260   0.01608  -0.2402  0.4208  1.0000  -2.7712   0.0000   0.0000   0.0000   0.3418
   9.750   2.1404   0.02305   0.01656  -0.2387  0.4176  1.0000  -2.8011   0.0000   0.0000   0.0000   0.3396
  10.000   2.1605   0.02353   0.01706  -0.2378  0.4147  1.0000  -2.8425   0.0000   0.0000   0.0000   0.3376
  10.250   2.1706   0.02417   0.01782  -0.2351  0.4110  1.0000  -2.8899   0.0000   0.0000   0.0000   0.3353
  10.500   2.1848   0.02472   0.01840  -0.2332  0.4072  1.0000  -2.9475   0.0000   0.0000   0.0000   0.3331
  10.750   2.1955   0.02540   0.01915  -0.2307  0.4029  1.0000  -3.0003   0.0000   0.0000   0.0000   0.3309
  11.000   2.2018   0.02619   0.02003  -0.2276  0.3979  1.0000  -3.0470   0.0000   0.0000   0.0000   0.3286
  11.250   2.2115   0.02697   0.02084  -0.2251  0.3933  1.0000  -3.0989   0.0000   0.0000   0.0000   0.3264
  11.500   2.2162   0.02795   0.02193  -0.2219  0.3884  1.0000  -3.1474   0.0000   0.0000   0.0000   0.3242
  11.750   2.2291   0.02872   0.02271  -0.2202  0.3844  1.0000  -3.2181   0.0000   0.0000   0.0000   0.3222
  12.000   2.2330   0.02990   0.02404  -0.2172  0.3801  1.0000  -3.2756   0.0000   0.0000   0.0000   0.3201
  12.250   2.2422   0.03090   0.02508  -0.2150  0.3760  1.0000  -3.3456   0.0000   0.0000   0.0000   0.3182
  12.500   2.2463   0.03221   0.02651  -0.2124  0.3713  1.0000  -3.4059   0.0000   0.0000   0.0000   0.3162
  12.750   2.2514   0.03353   0.02790  -0.2099  0.3668  1.0000  -3.4686   0.0000   0.0000   0.0000   0.3143
  13.000   2.2568   0.03493   0.02938  -0.2077  0.3624  1.0000  -3.5338   0.0000   0.0000   0.0000   0.3124
  13.250   2.2595   0.03655   0.03111  -0.2053  0.3577  1.0000  -3.5975   0.0000   0.0000   0.0000   0.3106
  13.500   2.2641   0.03814   0.03276  -0.2033  0.3532  1.0000  -3.6657   0.0000   0.0000   0.0000   0.3089
  13.750   2.2634   0.04020   0.03494  -0.2009  0.3478  1.0000  -3.7224   0.0000   0.0000   0.0000   0.3072
  14.000   2.2646   0.04223   0.03704  -0.1989  0.3427  1.0000  -3.7834   0.0000   0.0000   0.0000   0.3056
  14.250   2.2636   0.04454   0.03945  -0.1968  0.3373  1.0000  -3.8475   0.0000   0.0000   0.0000   0.3040
  14.500   2.2625   0.04699   0.04200  -0.1950  0.3319  1.0000  -3.9219   0.0000   0.0000   0.0000   0.3026
  14.750   2.2613   0.04950   0.04458  -0.1933  0.3265  1.0000  -3.9972   0.0000   0.0000   0.0000   0.3011
  15.000   2.2571   0.05248   0.04769  -0.1916  0.3206  1.0000  -4.0633   0.0000   0.0000   0.0000   0.2999
  15.250   2.2544   0.05535   0.05062  -0.1901  0.3150  1.0000  -4.1344   0.0000   0.0000   0.0000   0.2986
  15.500   2.2481   0.05876   0.05414  -0.1887  0.3086  1.0000  -4.1954   0.0000   0.0000   0.0000   0.2975
  15.750   2.2420   0.06223   0.05772  -0.1874  0.3024  1.0000  -4.2632   0.0000   0.0000   0.0000   0.2964
  16.000   2.2352   0.06586   0.06140  -0.1863  0.2961  1.0000  -4.3291   0.0000   0.0000   0.0000   0.2954
  16.250   2.2256   0.06997   0.06562  -0.1853  0.2889  1.0000  -4.3855   0.0000   0.0000   0.0000   0.2945
  16.500   2.2149   0.07435   0.07009  -0.1844  0.2814  1.0000  -4.4379   0.0000   0.0000   0.0000   0.2938
  16.750   2.2033   0.07892   0.07475  -0.1837  0.2736  1.0000  -4.4873   0.0000   0.0000   0.0000   0.2931
  17.000   2.1906   0.08372   0.07963  -0.1832  0.2654  1.0000  -4.5496   0.0000   0.0000   0.0000   0.2926
  17.250   2.1770   0.08874   0.08471  -0.1828  0.2568  1.0000  -4.6254   0.0000   0.0000   0.0000   0.2922
  17.500   2.1626   0.09392   0.08995  -0.1826  0.2477  1.0000  -4.6991   0.0000   0.0000   0.0000   0.2919
  17.750   2.1468   0.09939   0.09547  -0.1827  0.2378  1.0000  -4.7656   0.0000   0.0000   0.0000   0.2917
  18.000   2.1302   0.10503   0.10114  -0.1830  0.2271  1.0000  -4.8250   0.0000   0.0000   0.0000   0.2917
  18.250   2.1124   0.11085   0.10697  -0.1835  0.2162  1.0000  -4.8756   0.0000   0.0000   0.0000   0.2919
  18.500   2.0956   0.11660   0.11274  -0.1842  0.2045  1.0000  -4.9280   0.0000   0.0000   0.0000   0.2922
  18.750   2.0781   0.12246   0.11859  -0.1853  0.1924  1.0000  -4.9732   0.0000   0.0000   0.0000   0.2926
  19.000   2.0613   0.12823   0.12435  -0.1865  0.1804  1.0000  -5.0187   0.0000   0.0000   0.0000   0.2932
  19.250   2.0452   0.13388   0.12998  -0.1880  0.1689  1.0000  -5.0656   0.0000   0.0000   0.0000   0.2938
  19.500   2.0303   0.13936   0.13542  -0.1896  0.1587  1.0000  -5.1160   0.0000   0.0000   0.0000   0.2945
  19.750   2.0182   0.14439   0.14043  -0.1912  0.1494  1.0000  -5.1819   0.0000   0.0000   0.0000   0.2951
  20.000   2.0080   0.14909   0.14512  -0.1928  0.1408  1.0000  -5.2588   0.0000   0.0000   0.0000   0.2956
  20.250   1.9994   0.15354   0.14957  -0.1945  0.1331  1.0000  -5.3442   0.0000   0.0000   0.0000   0.2961
  20.500   1.9922   0.15777   0.15380  -0.1963  0.1258  1.0000  -5.4375   0.0000   0.0000   0.0000   0.2965
  20.750   1.9857   0.16187   0.15790  -0.1981  0.1192  1.0000  -5.5348   0.0000   0.0000   0.0000   0.2969
  21.000   1.9800   0.16582   0.16185  -0.1999  0.1131  1.0000  -5.6367   0.0000   0.0000   0.0000   0.2973
  21.250   1.9756   0.16955   0.16560  -0.2017  0.1071  1.0000  -5.7480   0.0000   0.0000   0.0000   0.2976
  21.500   1.9718   0.17318   0.16926  -0.2036  0.1015  1.0000  -5.8624   0.0000   0.0000   0.0000   0.2979
  21.750   1.9686   0.17671   0.17281  -0.2054  0.0962  1.0000  -5.9813   0.0000   0.0000   0.0000   0.2982
  22.000   1.9656   0.18015   0.17628  -0.2073  0.0911  1.0000  -6.1021   0.0000   0.0000   0.0000   0.2985
  22.250   1.9623   0.18365   0.17980  -0.2094  0.0864  1.0000  -6.2201   0.0000   0.0000   0.0000   0.2989
  22.500   1.9588   0.18719   0.18334  -0.2115  0.0819  1.0000  -6.3360   0.0000   0.0000   0.0000   0.2993
  22.750   1.9568   0.19046   0.18666  -0.2135  0.0772  1.0000  -6.4637   0.0000   0.0000   0.0000   0.2996
  23.000   1.9547   0.19376   0.18999  -0.2157  0.0730  1.0000  -6.5899   0.0000   0.0000   0.0000   0.2999
  23.250   1.9525   0.19702   0.19328  -0.2178  0.0690  1.0000  -6.7162   0.0000   0.0000   0.0000   0.3003
  23.500   1.9505   0.20024   0.19653  -0.2200  0.0652  1.0000  -6.8434   0.0000   0.0000   0.0000   0.3007
  23.750   1.9478   0.20357   0.19987  -0.2224  0.0618  1.0000  -6.9642   0.0000   0.0000   0.0000   0.3012
  24.000   1.9465   0.20667   0.20302  -0.2246  0.0582  1.0000  -7.0973   0.0000   0.0000   0.0000   0.3015
  24.250   1.9452   0.20972   0.20612  -0.2269  0.0549  1.0000  -7.2365   0.0000   0.0000   0.0000   0.3018
  24.500   1.9434   0.21287   0.20930  -0.2293  0.0520  1.0000  -7.3726   0.0000   0.0000   0.0000   0.3023
  24.750   1.9412   0.21603   0.21247  -0.2318  0.0494  1.0000  -7.5057   0.0000   0.0000   0.0000   0.3028
  25.000   1.9405   0.21896   0.21548  -0.2341  0.0465  1.0000  -7.6525   0.0000   0.0000   0.0000   0.3031


