xflr5 v6.59

 Calculated polar for: TKV2008

 1 1 Reynolds number fixed          Mach number fixed         

 xtrf =   1.000 (top)        1.000 (bottom)
 Mach =   0.000     Re =     0.100 e 6     Ncrit =   9.000

  alpha     CL        CD       CDp       Cm    Top Xtr Bot Xtr   Cpmin    Chinge    XCp    
 ------- -------- --------- --------- -------- ------- ------- -------- --------- ---------
 -25.000  -0.4572   0.26888   0.26266  -0.0007  1.0000  0.0220  -1.2885   0.0000   0.0000   0.0000   0.2060
 -24.750  -0.4498   0.26680   0.26060  -0.0022  1.0000  0.0223  -1.2822   0.0000   0.0000   0.0000   0.2025
 -24.500  -0.4424   0.26474   0.25855  -0.0038  1.0000  0.0225  -1.2766   0.0000   0.0000   0.0000   0.1989
 -23.000  -0.3978   0.25208   0.24597  -0.0127  1.0000  0.0234  -1.2696   0.0000   0.0000   0.0000   0.1749
 -22.750  -0.3904   0.24988   0.24379  -0.0140  1.0000  0.0237  -1.2575   0.0000   0.0000   0.0000   0.1708
 -22.500  -0.3829   0.24777   0.24170  -0.0153  1.0000  0.0239  -1.2481   0.0000   0.0000   0.0000   0.1665
 -22.250  -0.3755   0.24563   0.23957  -0.0166  1.0000  0.0241  -1.2404   0.0000   0.0000   0.0000   0.1621
 -22.000  -0.3680   0.24350   0.23746  -0.0179  1.0000  0.0244  -1.2337   0.0000   0.0000   0.0000   0.1575
 -21.750  -0.3606   0.24138   0.23536  -0.0191  1.0000  0.0247  -1.2278   0.0000   0.0000   0.0000   0.1527
 -21.500  -0.3532   0.23924   0.23324  -0.0204  1.0000  0.0250  -1.2234   0.0000   0.0000   0.0000   0.1477
 -21.250  -0.3458   0.23710   0.23112  -0.0216  1.0000  0.0252  -1.2212   0.0000   0.0000   0.0000   0.1426
 -20.500  -0.3240   0.23069   0.22478  -0.0252  1.0000  0.0256  -1.2281   0.0000   0.0000   0.0000   0.1264
 -20.250  -0.3166   0.22845   0.22256  -0.0262  1.0000  0.0259  -1.2159   0.0000   0.0000   0.0000   0.1211
 -20.000  -0.3094   0.22630   0.22043  -0.0272  1.0000  0.0262  -1.2076   0.0000   0.0000   0.0000   0.1155
 -19.750  -0.3022   0.22415   0.21831  -0.0282  1.0000  0.0265  -1.2015   0.0000   0.0000   0.0000   0.1097
 -19.500  -0.2950   0.22200   0.21619  -0.0292  1.0000  0.0268  -1.1970   0.0000   0.0000   0.0000   0.1037
 -19.250  -0.2880   0.21987   0.21407  -0.0302  1.0000  0.0271  -1.1939   0.0000   0.0000   0.0000   0.0975
 -18.250  -0.2610   0.21154   0.20587  -0.0340  1.0000  0.0278  -1.2033   0.0000   0.0000   0.0000   0.0704
 -18.000  -0.2541   0.20917   0.20353  -0.0345  1.0000  0.0281  -1.1809   0.0000   0.0000   0.0000   0.0641
 -17.750  -0.2474   0.20700   0.20139  -0.0352  1.0000  0.0284  -1.1705   0.0000   0.0000   0.0000   0.0573
 -17.500  -0.2409   0.20488   0.19931  -0.0358  1.0000  0.0288  -1.1661   0.0000   0.0000   0.0000   0.0503
 -17.250  -0.2346   0.20279   0.19725  -0.0364  1.0000  0.0293  -1.1653   0.0000   0.0000   0.0000   0.0431
 -17.000  -0.2285   0.20073   0.19524  -0.0370  1.0000  0.0297  -1.1682   0.0000   0.0000   0.0000   0.0358
 -16.250  -0.2118   0.19476   0.18940  -0.0387  1.0000  0.0303  -1.1927   0.0000   0.0000   0.0000   0.0140
 -16.000  -0.2061   0.19253   0.18721  -0.0388  1.0000  0.0306  -1.1753   0.0000   0.0000   0.0000   0.0077
 -15.750  -0.2009   0.19048   0.18521  -0.0390  1.0000  0.0309  -1.1654   0.0000   0.0000   0.0000   0.0015
 -15.500  -0.1961   0.18852   0.18330  -0.0391  1.0000  0.0313  -1.1597   0.0000   0.0000   0.0000  -0.0044
 -15.250  -0.1917   0.18662   0.18145  -0.0392  1.0000  0.0317  -1.1572   0.0000   0.0000   0.0000  -0.0095
 -15.000  -0.1879   0.18479   0.17968  -0.0392  1.0000  0.0321  -1.1578   0.0000   0.0000   0.0000  -0.0137
 -14.750  -0.1848   0.18307   0.17802  -0.0391  1.0000  0.0324  -1.1627   0.0000   0.0000   0.0000  -0.0165
 -14.500  -0.1827   0.18153   0.17655  -0.0389  1.0000  0.0326  -1.1728   0.0000   0.0000   0.0000  -0.0172
 -14.250  -0.1817   0.18012   0.17522  -0.0384  1.0000  0.0328  -1.1825   0.0000   0.0000   0.0000  -0.0150
 -14.000  -0.1810   0.17844   0.17362  -0.0374  1.0000  0.0331  -1.1637   0.0000   0.0000   0.0000  -0.0091
 -13.750  -0.1828   0.17732   0.17259  -0.0360  1.0000  0.0334  -1.1549   0.0000   0.0000   0.0000   0.0024
 -13.500  -0.1885   0.17679   0.17217  -0.0339  1.0000  0.0337  -1.1582   0.0000   0.0000   0.0000   0.0221
 -13.250  -0.1997   0.17705   0.17256  -0.0309  1.0000  0.0340  -1.1678   0.0000   0.0000   0.0000   0.0511
 -13.000  -0.1778   0.17354   0.16905  -0.0363  0.9962  0.0347  -1.1629   0.0000   0.0000   0.0000  -0.0040
 -12.750  -0.1522   0.16974   0.16522  -0.0430  0.9913  0.0353  -1.1766   0.0000   0.0000   0.0000  -0.0915
 -12.500  -0.1266   0.16545   0.16092  -0.0488  0.9860  0.0359  -1.1537   0.0000   0.0000   0.0000  -0.2067
 -12.250  -0.1015   0.16137   0.15682  -0.0545  0.9804  0.0368  -1.1304   0.0000   0.0000   0.0000  -0.3760
 -12.000  -0.0774   0.15746   0.15290  -0.0602  0.9743  0.0377  -1.1261   0.0000   0.0000   0.0000  -0.6450
 -11.500  -0.0312   0.14948   0.14490  -0.0707  0.9613  0.0388  -1.1078   0.0000   0.0000   0.0000  -2.3053
 -11.250  -0.0087   0.14556   0.14096  -0.0754  0.9543  0.0398  -1.0858   0.0000   0.0000   0.0000  -9.4921
 -11.000   0.0125   0.14185   0.13724  -0.0802  0.9468  0.0407  -1.0807   0.0000   0.0000   0.0000   7.3682
 -10.500   0.0538   0.13430   0.12968  -0.0887  0.9315  0.0420  -1.0556   0.0000   0.0000   0.0000   2.0674
 -10.250   0.0748   0.13059   0.12596  -0.0928  0.9242  0.0431  -1.0333   0.0000   0.0000   0.0000   1.6091
 -10.000   0.0979   0.12686   0.12220  -0.0980  0.9194  0.0442  -1.0455   0.0000   0.0000   0.0000   1.3425
  -9.750   0.1170   0.12329   0.11863  -0.1018  0.9114  0.0448  -1.0492   0.0000   0.0000   0.0000   1.1952
  -9.500   0.1380   0.11952   0.11484  -0.1051  0.9041  0.0459  -1.0220   0.0000   0.0000   0.0000   1.0754
  -9.250   0.1606   0.11588   0.11117  -0.1099  0.8989  0.0474  -1.0266   0.0000   0.0000   0.0000   0.9883
  -9.000   0.1829   0.11217   0.10743  -0.1143  0.8927  0.0483  -1.0258   0.0000   0.0000   0.0000   0.9221
  -8.750   0.2071   0.10840   0.10363  -0.1185  0.8861  0.0501  -0.9984   0.0000   0.0000   0.0000   0.8635
  -8.500   0.2336   0.10509   0.10027  -0.1256  0.8813  0.0515  -1.0330   0.0000   0.0000   0.0000   0.8242
  -8.250   0.2623   0.10071   0.09585  -0.1298  0.8741  0.0531  -0.9749   0.0000   0.0000   0.0000   0.7771
  -8.000   0.2944   0.09695   0.09201  -0.1373  0.8688  0.0552  -0.9769   0.0000   0.0000   0.0000   0.7452
  -7.750   0.3226   0.09317   0.08817  -0.1425  0.8606  0.0565  -0.9569   0.0000   0.0000   0.0000   0.7177
  -7.500   0.3491   0.08999   0.08491  -0.1476  0.8513  0.0588  -0.9738   0.0000   0.0000   0.0000   0.6965
  -7.250   0.3726   0.08715   0.08201  -0.1527  0.8417  0.0601  -0.9877   0.0000   0.0000   0.0000   0.6818
  -7.000   0.3995   0.08394   0.07870  -0.1568  0.8329  0.0625  -1.0059   0.0000   0.0000   0.0000   0.6627
  -6.750   0.4128   0.08255   0.07724  -0.1608  0.8225  0.0642  -1.0120   0.0000   0.0000   0.0000   0.6584
  -6.500   0.4357   0.07932   0.07395  -0.1624  0.8137  0.0663  -1.0303   0.0000   0.0000   0.0000   0.6403
  -6.250   0.4428   0.07812   0.07272  -0.1631  0.8035  0.0686  -1.0353   0.0000   0.0000   0.0000   0.6350
  -6.000   0.4508   0.07649   0.07107  -0.1632  0.7944  0.0700  -1.0419   0.0000   0.0000   0.0000   0.6279
  -5.750   0.4654   0.07459   0.06911  -0.1644  0.7868  0.0732  -1.0532   0.0000   0.0000   0.0000   0.6178
  -5.500   0.4612   0.07483   0.06937  -0.1651  0.7775  0.0746  -1.0480   0.0000   0.0000   0.0000   0.6219
  -5.250   0.4731   0.07235   0.06689  -0.1626  0.7699  0.0768  -1.0609   0.0000   0.0000   0.0000   0.6069
  -5.000   0.4869   0.07120   0.06568  -0.1667  0.7635  0.0802  -1.0673   0.0000   0.0000   0.0000   0.6044
  -4.750   0.4880   0.06986   0.06440  -0.1639  0.7552  0.0814  -1.0705   0.0000   0.0000   0.0000   0.5974
  -4.500   0.5016   0.06818   0.06269  -0.1645  0.7491  0.0848  -1.0817   0.0000   0.0000   0.0000   0.5885
  -4.250   0.5092   0.06722   0.06175  -0.1670  0.7418  0.0873  -1.0845   0.0000   0.0000   0.0000   0.5878
  -4.000   0.5191   0.06552   0.06006  -0.1652  0.7358  0.0901  -1.0952   0.0000   0.0000   0.0000   0.5773
  -3.750   0.5354   0.06418   0.05870  -0.1700  0.7293  0.0942  -1.1022   0.0000   0.0000   0.0000   0.5758
  -3.500   0.5433   0.06268   0.05722  -0.1675  0.7235  0.0972  -1.1115   0.0000   0.0000   0.0000   0.5658
  -2.750   0.5942   0.05799   0.05250  -0.1737  0.7055  0.1129  -1.1443   0.0000   0.0000   0.0000   0.5477
  -2.500   0.6281   0.05572   0.05014  -0.1792  0.7010  0.1219  -1.1671   0.0000   0.0000   0.0000   0.5398
  -2.250   0.6447   0.05454   0.04899  -0.1817  0.6941  0.1292  -1.1763   0.0000   0.0000   0.0000   0.5358
  -2.000   0.7055   0.05166   0.04590  -0.1935  0.6903  0.1465  -1.2146   0.0000   0.0000   0.0000   0.5273
  -1.750   0.7281   0.05075   0.04499  -0.1968  0.6831  0.1577  -1.2267   0.0000   0.0000   0.0000   0.5228
  -1.500   0.7665   0.04822   0.04237  -0.2010  0.6791  0.1704  -1.2552   0.0000   0.0000   0.0000   0.5141
  -0.500   1.0776   0.03232   0.02408  -0.2545  0.6585  0.0918  -1.4426   0.0000   0.0000   0.0000   0.4856
  -0.250   1.1269   0.03101   0.02213  -0.2585  0.6546  0.0935  -1.4809   0.0000   0.0000   0.0000   0.4783
   0.000   1.1512   0.03099   0.02209  -0.2583  0.6490  0.0971  -1.5010   0.0000   0.0000   0.0000   0.4728
   0.250   1.1826   0.03071   0.02166  -0.2590  0.6442  0.1048  -1.5277   0.0000   0.0000   0.0000   0.4670
   0.500   1.2232   0.03013   0.02094  -0.2610  0.6410  0.1209  -1.5639   0.0000   0.0000   0.0000   0.4609
   0.750   1.2361   0.03097   0.02198  -0.2589  0.6343  0.1396  -1.5751   0.0000   0.0000   0.0000   0.4566
   1.000   1.2773   0.03055   0.02190  -0.2614  0.6305  0.3047  -1.6112   0.0000   0.0000   0.0000   0.4513
   1.250   1.2971   0.03121   0.02277  -0.2604  0.6253  0.4040  -1.6300   0.0000   0.0000   0.0000   0.4470
   1.500   1.3215   0.03151   0.02336  -0.2600  0.6203  0.5153  -1.6560   0.0000   0.0000   0.0000   0.4425
   1.750   1.3390   0.03066   0.02316  -0.2570  0.6174  1.0000  -1.6796   0.0000   0.0000   0.0000   0.4371
   2.000   1.3481   0.03229   0.02467  -0.2546  0.6109  1.0000  -1.6894   0.0000   0.0000   0.0000   0.4336
   2.250   1.3795   0.03268   0.02476  -0.2552  0.6071  1.0000  -1.7219   0.0000   0.0000   0.0000   0.4293
   2.500   1.4056   0.03336   0.02525  -0.2551  0.6032  1.0000  -1.7494   0.0000   0.0000   0.0000   0.4253
   3.000   1.4500   0.03497   0.02664  -0.2537  0.5941  1.0000  -1.7971   0.0000   0.0000   0.0000   0.4179
   3.500   1.4739   0.03775   0.02941  -0.2496  0.5837  1.0000  -1.8239   0.0000   0.0000   0.0000   0.4113
   3.750   1.5160   0.03748   0.02892  -0.2516  0.5814  1.0000  -1.8681   0.0000   0.0000   0.0000   0.4075
   4.000   1.4881   0.04124   0.03293  -0.2443  0.5732  1.0000  -1.8404   0.0000   0.0000   0.0000   0.4053
   4.250   1.5284   0.04096   0.03249  -0.2460  0.5707  1.0000  -1.8850   0.0000   0.0000   0.0000   0.4016
   5.000   1.5550   0.04590   0.03747  -0.2390  0.5565  1.0000  -1.9246   0.0000   0.0000   0.0000   0.3929
  13.250   1.3114   0.19428   0.18786  -0.2254  0.3962  1.0000  -1.4761   0.0000   0.0000   0.0000   0.3969
  13.500   1.3127   0.19670   0.19034  -0.2268  0.3884  1.0000  -1.4776   0.0000   0.0000   0.0000   0.3972
  13.750   1.3271   0.19889   0.19258  -0.2272  0.3831  1.0000  -1.5082   0.0000   0.0000   0.0000   0.3950
  14.000   1.3542   0.19969   0.19342  -0.2261  0.3745  1.0000  -1.5765   0.0000   0.0000   0.0000   0.3899
  14.250   1.3661   0.20080   0.19457  -0.2262  0.3644  1.0000  -1.6098   0.0000   0.0000   0.0000   0.3878
  15.500   1.4489   0.19947   0.19349  -0.2226  0.3015  1.0000  -1.8761   0.0000   0.0000   0.0000   0.3717
  15.750   1.4835   0.19758   0.19168  -0.2201  0.2975  1.0000  -1.9897   0.0000   0.0000   0.0000   0.3654
  16.000   1.4846   0.20029   0.19446  -0.2217  0.2890  1.0000  -2.0038   0.0000   0.0000   0.0000   0.3657
  16.250   1.4884   0.20272   0.19697  -0.2230  0.2810  1.0000  -2.0251   0.0000   0.0000   0.0000   0.3656
  16.750   1.5242   0.20305   0.19747  -0.2219  0.2699  1.0000  -2.1661   0.0000   0.0000   0.0000   0.3596
  17.000   1.5255   0.20596   0.20045  -0.2237  0.2618  1.0000  -2.1824   0.0000   0.0000   0.0000   0.3600
  17.250   1.5287   0.20863   0.20320  -0.2253  0.2541  1.0000  -2.2041   0.0000   0.0000   0.0000   0.3601
  17.500   1.5570   0.20644   0.20111  -0.2230  0.2507  1.0000  -2.3238   0.0000   0.0000   0.0000   0.3549
  17.750   1.5610   0.20887   0.20363  -0.2244  0.2431  1.0000  -2.3507   0.0000   0.0000   0.0000   0.3548
  18.000   1.5616   0.21209   0.20692  -0.2266  0.2352  1.0000  -2.3641   0.0000   0.0000   0.0000   0.3554
  18.500   1.5927   0.21214   0.20717  -0.2258  0.2251  1.0000  -2.5243   0.0000   0.0000   0.0000   0.3503
  18.750   1.5914   0.21584   0.21094  -0.2283  0.2172  1.0000  -2.5287   0.0000   0.0000   0.0000   0.3514
  20.750   1.6361   0.23328   0.22906  -0.2400  0.1681  1.0000  -2.9031   0.0000   0.0000   0.0000   0.3485
  21.000   1.6700   0.22736   0.22331  -0.2354  0.1662  1.0000  -3.1467   0.0000   0.0000   0.0000   0.3413
  21.500   1.6505   0.24041   0.23643  -0.2453  0.1518  1.0000  -3.0408   0.0000   0.0000   0.0000   0.3480
  21.750   1.6857   0.23350   0.22970  -0.2400  0.1500  1.0000  -3.3279   0.0000   0.0000   0.0000   0.3402
  22.250   1.9404   0.18027   0.17673  -0.2014  0.1493  1.0000  -5.7459   0.0000   0.0000   0.0000   0.2964
  22.500   1.9507   0.18095   0.17738  -0.2016  0.1416  1.0000  -5.9633   0.0000   0.0000   0.0000   0.2951
  22.750   1.9603   0.18170   0.17811  -0.2020  0.1342  1.0000  -6.1774   0.0000   0.0000   0.0000   0.2938
  23.000   1.9690   0.18263   0.17900  -0.2024  0.1272  1.0000  -6.3862   0.0000   0.0000   0.0000   0.2927
  23.250   1.9405   0.19098   0.18762  -0.2083  0.1230  1.0000  -6.2602   0.0000   0.0000   0.0000   0.2965
  23.500   1.9406   0.19362   0.19031  -0.2101  0.1174  1.0000  -6.3881   0.0000   0.0000   0.0000   0.2965
  23.750   1.9500   0.19435   0.19103  -0.2106  0.1116  1.0000  -6.6037   0.0000   0.0000   0.0000   0.2953
  24.000   1.9626   0.19436   0.19099  -0.2105  0.1058  1.0000  -6.8528   0.0000   0.0000   0.0000   0.2936
  24.250   1.9246   0.20496   0.20192  -0.2187  0.1035  1.0000  -6.6077   0.0000   0.0000   0.0000   0.2993
  24.500   1.9356   0.20529   0.20226  -0.2189  0.0985  1.0000  -6.8407   0.0000   0.0000   0.0000   0.2978
  24.750   1.9533   0.20407   0.20096  -0.2180  0.0932  1.0000  -7.1449   0.0000   0.0000   0.0000   0.2953
  25.000   1.8934   0.21996   0.21726  -0.2308  0.0928  1.0000  -6.6337   0.0000   0.0000   0.0000   0.3052


