xflr5 v6.59

 Calculated polar for: TKV2008

 1 1 Reynolds number fixed          Mach number fixed         

 xtrf =   1.000 (top)        1.000 (bottom)
 Mach =   0.000     Re =     2.000 e 6     Ncrit =   9.000

  alpha     CL        CD       CDp       Cm    Top Xtr Bot Xtr   Cpmin    Chinge    XCp    
 ------- -------- --------- --------- -------- ------- ------- -------- --------- ---------
 -15.000   0.0638   0.14738   0.14595  -0.1155  0.9797  0.0060  -1.3268   0.0000   0.0000   0.0000   2.2815
 -14.750   0.0837   0.14397   0.14253  -0.1198  0.9791  0.0060  -1.2678   0.0000   0.0000   0.0000   1.8508
 -14.500   0.0860   0.14223   0.14080  -0.1186  0.9750  0.0060  -1.2384   0.0000   0.0000   0.0000   1.7886
 -14.250   0.1023   0.13910   0.13767  -0.1218  0.9730  0.0061  -1.2022   0.0000   0.0000   0.0000   1.5740
 -14.000   0.1026   0.13758   0.13617  -0.1199  0.9665  0.0062  -1.1916   0.0000   0.0000   0.0000   1.5483
 -13.750   0.1032   0.13596   0.13455  -0.1181  0.9464  0.0063  -1.1843   0.0000   0.0000   0.0000   1.5200
 -13.500   0.1738   0.12735   0.12579  -0.1384  0.9290  0.0066  -1.1360   0.0000   0.0000   0.0000   1.1261
 -13.250   0.2223   0.12188   0.11958  -0.1516  0.8158  0.0069  -1.1163   0.0000   0.0000   0.0000   0.9963
 -10.500   0.3304   0.09629   0.09315  -0.1632  0.6458  0.0075  -1.2095   0.0000   0.0000   0.0000   0.7804
 -10.250   0.3407   0.09434   0.09117  -0.1640  0.6390  0.0075  -1.1775   0.0000   0.0000   0.0000   0.7659
 -10.000   0.3509   0.09238   0.08919  -0.1647  0.6324  0.0076  -1.1532   0.0000   0.0000   0.0000   0.7524
  -9.750   0.3609   0.09040   0.08719  -0.1654  0.6264  0.0078  -1.1371   0.0000   0.0000   0.0000   0.7397
  -9.500   0.3708   0.08840   0.08517  -0.1661  0.6202  0.0079  -1.1295   0.0000   0.0000   0.0000   0.7277
  -9.250   0.3805   0.08638   0.08313  -0.1668  0.6147  0.0082  -1.1311   0.0000   0.0000   0.0000   0.7166
  -9.000   0.3899   0.08426   0.08100  -0.1674  0.6093  0.0085  -1.1552   0.0000   0.0000   0.0000   0.7063
  -8.750   0.3977   0.08178   0.07850  -0.1681  0.6044  0.0087  -1.2699   0.0000   0.0000   0.0000   0.6984
  -8.500   0.4057   0.07950   0.07623  -0.1688  0.6001  0.0088  -1.3351   0.0000   0.0000   0.0000   0.6907
  -8.250   0.4133   0.07731   0.07403  -0.1694  0.5955  0.0088  -1.3881   0.0000   0.0000   0.0000   0.6834
  -8.000   0.4210   0.07519   0.07190  -0.1699  0.5914  0.0088  -1.4245   0.0000   0.0000   0.0000   0.6760
  -7.750   0.4299   0.07319   0.06991  -0.1701  0.5873  0.0088  -1.3986   0.0000   0.0000   0.0000   0.6668
  -7.500   0.4399   0.07161   0.06831  -0.1701  0.5829  0.0089  -1.3236   0.0000   0.0000   0.0000   0.6567
  -7.250   0.4493   0.07002   0.06672  -0.1702  0.5791  0.0090  -1.2653   0.0000   0.0000   0.0000   0.6476
  -7.000   0.4582   0.06842   0.06513  -0.1702  0.5752  0.0090  -1.2190   0.0000   0.0000   0.0000   0.6392
  -6.750   0.4662   0.06682   0.06352  -0.1701  0.5713  0.0091  -1.1852   0.0000   0.0000   0.0000   0.6315
  -6.500   0.4734   0.06521   0.06192  -0.1698  0.5677  0.0092  -1.1607   0.0000   0.0000   0.0000   0.6243
  -6.250   0.4794   0.06363   0.06035  -0.1692  0.5641  0.0094  -1.1429   0.0000   0.0000   0.0000   0.6177
  -6.000   0.4830   0.06214   0.05886  -0.1681  0.5604  0.0095  -1.1331   0.0000   0.0000   0.0000   0.6118
  -5.750   0.4830   0.06079   0.05753  -0.1661  0.5569  0.0097  -1.1425   0.0000   0.0000   0.0000   0.6068
  -5.500   0.4853   0.05922   0.05598  -0.1648  0.5539  0.0100  -1.1758   0.0000   0.0000   0.0000   0.6019
  -5.250   0.4838   0.05566   0.05245  -0.1661  0.5511  0.0104  -1.6037   0.0000   0.0000   0.0000   0.6050
  -5.000   0.4891   0.05402   0.05082  -0.1653  0.5476  0.0105  -1.5779   0.0000   0.0000   0.0000   0.5988
  -4.000   0.7922   0.01124   0.00633  -0.2647  0.5343  0.0118  -3.9384   0.0000   0.0000   0.0000   0.5905
  -3.750   0.8258   0.01073   0.00564  -0.2661  0.5309  0.0120  -3.7194   0.0000   0.0000   0.0000   0.5779
  -3.500   0.8605   0.01006   0.00482  -0.2679  0.5270  0.0123  -3.4993   0.0000   0.0000   0.0000   0.5663
  -3.250   0.8904   0.00990   0.00458  -0.2684  0.5230  0.0126  -3.2581   0.0000   0.0000   0.0000   0.5557
  -3.000   0.9209   0.00969   0.00433  -0.2690  0.5198  0.0128  -3.0465   0.0000   0.0000   0.0000   0.5457
  -2.750   0.9511   0.00951   0.00407  -0.2695  0.5162  0.0131  -2.8477   0.0000   0.0000   0.0000   0.5364
  -2.500   0.9807   0.00937   0.00384  -0.2699  0.5124  0.0135  -2.6568   0.0000   0.0000   0.0000   0.5276
  -2.250   1.0105   0.00924   0.00366  -0.2703  0.5094  0.0137  -2.4647   0.0000   0.0000   0.0000   0.5193
  -2.000   1.0408   0.00904   0.00343  -0.2708  0.5060  0.0142  -2.2725   0.0000   0.0000   0.0000   0.5115
  -1.750   1.0695   0.00900   0.00335  -0.2710  0.5023  0.0147  -2.0785   0.0000   0.0000   0.0000   0.5042
  -1.500   1.0981   0.00896   0.00327  -0.2711  0.4992  0.0154  -1.8933   0.0000   0.0000   0.0000   0.4971
  -1.250   1.1273   0.00888   0.00317  -0.2714  0.4960  0.0162  -1.7084   0.0000   0.0000   0.0000   0.4905
  -1.000   1.1555   0.00887   0.00313  -0.2714  0.4925  0.0170  -1.5445   0.0000   0.0000   0.0000   0.4841
  -0.750   1.1839   0.00884   0.00307  -0.2715  0.4890  0.0180  -1.5717   0.0000   0.0000   0.0000   0.4781
  -0.500   1.2121   0.00883   0.00304  -0.2716  0.4855  0.0190  -1.5989   0.0000   0.0000   0.0000   0.4723
  -0.250   1.2401   0.00883   0.00301  -0.2716  0.4817  0.0203  -1.6260   0.0000   0.0000   0.0000   0.4668
   0.000   1.2678   0.00884   0.00300  -0.2716  0.4781  0.0217  -1.6543   0.0000   0.0000   0.0000   0.4615
   0.250   1.2958   0.00884   0.00300  -0.2716  0.4750  0.0237  -1.6831   0.0000   0.0000   0.0000   0.4564
   0.500   1.3233   0.00887   0.00301  -0.2715  0.4716  0.0266  -1.7115   0.0000   0.0000   0.0000   0.4515
   0.750   1.3503   0.00892   0.00304  -0.2714  0.4680  0.0308  -1.7397   0.0000   0.0000   0.0000   0.4468
   1.000   1.3783   0.00890   0.00307  -0.2715  0.4650  0.0509  -1.7687   0.0000   0.0000   0.0000   0.4423
   1.250   1.4066   0.00883   0.00316  -0.2717  0.4613  0.1343  -1.7978   0.0000   0.0000   0.0000   0.4381
   1.500   1.4331   0.00890   0.00327  -0.2715  0.4574  0.1791  -1.8259   0.0000   0.0000   0.0000   0.4339
   1.750   1.4601   0.00893   0.00334  -0.2714  0.4543  0.2031  -1.8549   0.0000   0.0000   0.0000   0.4298
   2.000   1.4864   0.00900   0.00342  -0.2711  0.4506  0.2222  -1.8862   0.0000   0.0000   0.0000   0.4259
   2.250   1.5118   0.00911   0.00353  -0.2707  0.4469  0.2421  -1.9169   0.0000   0.0000   0.0000   0.4221
   2.500   1.5380   0.00915   0.00362  -0.2704  0.4440  0.2705  -1.9483   0.0000   0.0000   0.0000   0.4184
   2.750   1.5639   0.00920   0.00374  -0.2701  0.4405  0.3189  -1.9795   0.0000   0.0000   0.0000   0.4148
   3.000   1.5894   0.00926   0.00389  -0.2698  0.4370  0.3996  -2.0104   0.0000   0.0000   0.0000   0.4114
   3.250   1.6162   0.00919   0.00410  -0.2698  0.4342  0.5860  -2.0424   0.0000   0.0000   0.0000   0.4081
   3.500   1.6418   0.00920   0.00428  -0.2695  0.4311  0.7041  -2.0736   0.0000   0.0000   0.0000   0.4049
   3.750   1.6657   0.00922   0.00448  -0.2688  0.4278  0.8272  -2.1035   0.0000   0.0000   0.0000   0.4016
   4.250   1.7140   0.00929   0.00471  -0.2675  0.4216  1.0000  -2.1639   0.0000   0.0000   0.0000   0.3954
   4.500   1.7383   0.00945   0.00484  -0.2669  0.4179  1.0000  -2.1942   0.0000   0.0000   0.0000   0.3923
   4.750   1.7623   0.00962   0.00499  -0.2663  0.4144  1.0000  -2.2244   0.0000   0.0000   0.0000   0.3894
   5.000   1.7869   0.00975   0.00511  -0.2658  0.4112  1.0000  -2.2551   0.0000   0.0000   0.0000   0.3866
   5.250   1.8106   0.00993   0.00527  -0.2651  0.4079  1.0000  -2.2851   0.0000   0.0000   0.0000   0.3838
   5.500   1.8338   0.01012   0.00544  -0.2643  0.4047  1.0000  -2.3181   0.0000   0.0000   0.0000   0.3810
   5.750   1.8580   0.01025   0.00558  -0.2638  0.4017  1.0000  -2.3525   0.0000   0.0000   0.0000   0.3783
   6.000   1.8814   0.01043   0.00575  -0.2631  0.3984  1.0000  -2.3861   0.0000   0.0000   0.0000   0.3757
   6.250   1.9038   0.01065   0.00594  -0.2622  0.3949  1.0000  -2.4188   0.0000   0.0000   0.0000   0.3731
   6.500   1.9275   0.01079   0.00610  -0.2616  0.3922  1.0000  -2.4529   0.0000   0.0000   0.0000   0.3706
   6.750   1.9502   0.01098   0.00629  -0.2608  0.3891  1.0000  -2.4875   0.0000   0.0000   0.0000   0.3681
   7.000   1.9720   0.01122   0.00651  -0.2598  0.3860  1.0000  -2.5219   0.0000   0.0000   0.0000   0.3656
   7.250   1.9946   0.01141   0.00672  -0.2591  0.3832  1.0000  -2.5571   0.0000   0.0000   0.0000   0.3632
   7.500   2.0171   0.01160   0.00692  -0.2583  0.3802  1.0000  -2.5923   0.0000   0.0000   0.0000   0.3608
   7.750   2.0378   0.01187   0.00718  -0.2572  0.3761  1.0000  -2.6259   0.0000   0.0000   0.0000   0.3585
   8.000   2.0593   0.01211   0.00742  -0.2562  0.3716  1.0000  -2.6603   0.0000   0.0000   0.0000   0.3562
   8.250   2.0796   0.01240   0.00770  -0.2550  0.3665  1.0000  -2.6936   0.0000   0.0000   0.0000   0.3539
   8.500   2.1003   0.01267   0.00797  -0.2540  0.3627  1.0000  -2.7273   0.0000   0.0000   0.0000   0.3516
   8.750   2.1206   0.01294   0.00825  -0.2529  0.3590  1.0000  -2.7607   0.0000   0.0000   0.0000   0.3494
   9.000   2.1391   0.01331   0.00861  -0.2514  0.3548  1.0000  -2.7923   0.0000   0.0000   0.0000   0.3471
   9.250   2.1598   0.01357   0.00889  -0.2504  0.3507  1.0000  -2.8262   0.0000   0.0000   0.0000   0.3450
   9.750   2.1962   0.01433   0.00964  -0.2476  0.3402  1.0000  -2.8890   0.0000   0.0000   0.0000   0.3407
  10.000   2.2126   0.01479   0.01009  -0.2459  0.3349  1.0000  -2.9340   0.0000   0.0000   0.0000   0.3385
  10.250   2.2313   0.01514   0.01047  -0.2446  0.3310  1.0000  -2.9985   0.0000   0.0000   0.0000   0.3364
  10.500   2.2466   0.01567   0.01099  -0.2427  0.3255  1.0000  -3.0585   0.0000   0.0000   0.0000   0.3343
  10.750   2.2629   0.01614   0.01147  -0.2411  0.3196  1.0000  -3.1204   0.0000   0.0000   0.0000   0.3322
  11.000   2.2775   0.01671   0.01204  -0.2392  0.3137  1.0000  -3.1799   0.0000   0.0000   0.0000   0.3301
  11.250   2.2915   0.01732   0.01265  -0.2373  0.3080  1.0000  -3.2483   0.0000   0.0000   0.0000   0.3281
  11.500   2.3059   0.01791   0.01326  -0.2354  0.3034  1.0000  -3.3280   0.0000   0.0000   0.0000   0.3260
  11.750   2.3180   0.01864   0.01399  -0.2333  0.2981  1.0000  -3.4045   0.0000   0.0000   0.0000   0.3240
  12.000   2.3312   0.01932   0.01469  -0.2314  0.2926  1.0000  -3.4836   0.0000   0.0000   0.0000   0.3220
  12.250   2.3410   0.02022   0.01559  -0.2290  0.2862  1.0000  -3.5568   0.0000   0.0000   0.0000   0.3200
  12.500   2.3498   0.02120   0.01657  -0.2266  0.2795  1.0000  -3.6349   0.0000   0.0000   0.0000   0.3180
  12.750   2.3578   0.02226   0.01764  -0.2241  0.2720  1.0000  -3.7117   0.0000   0.0000   0.0000   0.3160
  13.000   2.3630   0.02355   0.01893  -0.2214  0.2637  1.0000  -3.7829   0.0000   0.0000   0.0000   0.3140
  13.250   2.3660   0.02506   0.02042  -0.2185  0.2551  1.0000  -3.8497   0.0000   0.0000   0.0000   0.3120
  13.500   2.3667   0.02682   0.02217  -0.2155  0.2455  1.0000  -3.9200   0.0000   0.0000   0.0000   0.3101
  13.750   2.3635   0.02897   0.02430  -0.2124  0.2345  1.0000  -3.9914   0.0000   0.0000   0.0000   0.3083
  14.000   2.3571   0.03154   0.02684  -0.2091  0.2227  1.0000  -4.0539   0.0000   0.0000   0.0000   0.3065
  14.250   2.3485   0.03447   0.02976  -0.2060  0.2107  1.0000  -4.1138   0.0000   0.0000   0.0000   0.3048
  14.500   2.3365   0.03791   0.03318  -0.2030  0.1983  1.0000  -4.1655   0.0000   0.0000   0.0000   0.3032
  14.750   2.3220   0.04181   0.03706  -0.2001  0.1852  1.0000  -4.2094   0.0000   0.0000   0.0000   0.3018
  15.000   2.3026   0.04646   0.04169  -0.1973  0.1722  1.0000  -4.2376   0.0000   0.0000   0.0000   0.3006
  15.250   2.2834   0.05133   0.04655  -0.1949  0.1601  1.0000  -4.2658   0.0000   0.0000   0.0000   0.2996
  15.500   2.2641   0.05643   0.05165  -0.1929  0.1497  1.0000  -4.2932   0.0000   0.0000   0.0000   0.2987
  15.750   2.2467   0.06150   0.05675  -0.1913  0.1406  1.0000  -4.3259   0.0000   0.0000   0.0000   0.2979
  16.000   2.2303   0.06663   0.06190  -0.1900  0.1325  1.0000  -4.3611   0.0000   0.0000   0.0000   0.2972
  16.250   2.2132   0.07197   0.06726  -0.1889  0.1240  1.0000  -4.3938   0.0000   0.0000   0.0000   0.2966
  16.500   2.1972   0.07731   0.07263  -0.1881  0.1168  1.0000  -4.4292   0.0000   0.0000   0.0000   0.2961
  16.750   2.1831   0.08249   0.07784  -0.1875  0.1101  1.0000  -4.4702   0.0000   0.0000   0.0000   0.2956
  17.000   2.1691   0.08775   0.08314  -0.1871  0.1040  1.0000  -4.5109   0.0000   0.0000   0.0000   0.2952
  17.250   2.1572   0.09277   0.08819  -0.1869  0.0989  1.0000  -4.5767   0.0000   0.0000   0.0000   0.2948
  17.500   2.1465   0.09766   0.09311  -0.1869  0.0940  1.0000  -4.6725   0.0000   0.0000   0.0000   0.2944
  17.750   2.1379   0.10226   0.09776  -0.1869  0.0891  1.0000  -4.7794   0.0000   0.0000   0.0000   0.2941
  18.000   2.1290   0.10693   0.10246  -0.1872  0.0845  1.0000  -4.8836   0.0000   0.0000   0.0000   0.2938
  18.250   2.1207   0.11150   0.10706  -0.1875  0.0800  1.0000  -4.9910   0.0000   0.0000   0.0000   0.2935
  18.500   2.1121   0.11613   0.11171  -0.1881  0.0753  1.0000  -5.0949   0.0000   0.0000   0.0000   0.2933
  18.750   2.1038   0.12068   0.11629  -0.1887  0.0712  1.0000  -5.2001   0.0000   0.0000   0.0000   0.2932
  19.000   2.0976   0.12490   0.12054  -0.1894  0.0670  1.0000  -5.3168   0.0000   0.0000   0.0000   0.2930
  19.250   2.0915   0.12909   0.12476  -0.1902  0.0629  1.0000  -5.4335   0.0000   0.0000   0.0000   0.2929
  19.500   2.0857   0.13321   0.12891  -0.1912  0.0588  1.0000  -5.5514   0.0000   0.0000   0.0000   0.2928
  19.750   2.0802   0.13726   0.13297  -0.1922  0.0549  1.0000  -5.6711   0.0000   0.0000   0.0000   0.2927
  20.000   2.0756   0.14114   0.13687  -0.1932  0.0514  1.0000  -5.7962   0.0000   0.0000   0.0000   0.2926
  20.250   2.0712   0.14498   0.14075  -0.1944  0.0483  1.0000  -5.9225   0.0000   0.0000   0.0000   0.2925
  20.500   2.0672   0.14872   0.14451  -0.1956  0.0450  1.0000  -6.0513   0.0000   0.0000   0.0000   0.2925
  20.750   2.0637   0.15237   0.14818  -0.1969  0.0423  1.0000  -6.1831   0.0000   0.0000   0.0000   0.2925
  21.000   2.0616   0.15575   0.15159  -0.1982  0.0397  1.0000  -6.3259   0.0000   0.0000   0.0000   0.2923
  21.250   2.0589   0.15922   0.15509  -0.1996  0.0373  1.0000  -6.4645   0.0000   0.0000   0.0000   0.2923
  21.500   2.0568   0.16256   0.15845  -0.2010  0.0350  1.0000  -6.6079   0.0000   0.0000   0.0000   0.2922
  21.750   2.0544   0.16593   0.16185  -0.2025  0.0327  1.0000  -6.7524   0.0000   0.0000   0.0000   0.2922
  22.000   2.0518   0.16933   0.16527  -0.2040  0.0305  1.0000  -6.9004   0.0000   0.0000   0.0000   0.2922
  22.250   2.0503   0.17249   0.16846  -0.2056  0.0283  1.0000  -7.0590   0.0000   0.0000   0.0000   0.2922
  22.500   2.0484   0.17572   0.17172  -0.2072  0.0262  1.0000  -7.2143   0.0000   0.0000   0.0000   0.2922
  22.750   2.0462   0.17897   0.17500  -0.2089  0.0241  1.0000  -7.3674   0.0000   0.0000   0.0000   0.2923
  23.000   2.0445   0.18211   0.17816  -0.2107  0.0221  1.0000  -7.5248   0.0000   0.0000   0.0000   0.2923
  23.250   2.0422   0.18535   0.18142  -0.2125  0.0203  1.0000  -7.6774   0.0000   0.0000   0.0000   0.2925
  23.500   2.0405   0.18845   0.18455  -0.2143  0.0184  1.0000  -7.8361   0.0000   0.0000   0.0000   0.2925
  23.750   2.0384   0.19159   0.18772  -0.2163  0.0168  1.0000  -7.9918   0.0000   0.0000   0.0000   0.2927
  24.000   2.0362   0.19476   0.19091  -0.2182  0.0154  1.0000  -8.1462   0.0000   0.0000   0.0000   0.2929
  24.250   2.0350   0.19772   0.19391  -0.2202  0.0139  1.0000  -8.3101   0.0000   0.0000   0.0000   0.2930
  24.500   2.0323   0.20093   0.19715  -0.2223  0.0125  1.0000  -8.4596   0.0000   0.0000   0.0000   0.2932
  24.750   2.0304   0.20397   0.20022  -0.2244  0.0112  1.0000  -8.6182   0.0000   0.0000   0.0000   0.2934
  25.000   2.0282   0.20704   0.20332  -0.2266  0.0101  1.0000  -8.7722   0.0000   0.0000   0.0000   0.2937


