xflr5 v6.59

 Calculated polar for: TKV2008

 1 1 Reynolds number fixed          Mach number fixed         

 xtrf =   1.000 (top)        1.000 (bottom)
 Mach =   0.000     Re =     0.200 e 6     Ncrit =   9.000

  alpha     CL        CD       CDp       Cm    Top Xtr Bot Xtr   Cpmin    Chinge    XCp    
 ------- -------- --------- --------- -------- ------- ------- -------- --------- ---------
 -24.000  -0.4332   0.26013   0.25578  -0.0045  1.0000  0.0138  -1.3165   0.0000   0.0000   0.0000   0.1975
 -23.750  -0.4259   0.25799   0.25366  -0.0059  1.0000  0.0139  -1.2984   0.0000   0.0000   0.0000   0.1940
 -23.500  -0.4186   0.25586   0.25154  -0.0073  1.0000  0.0140  -1.2851   0.0000   0.0000   0.0000   0.1904
 -23.250  -0.4112   0.25377   0.24946  -0.0087  1.0000  0.0141  -1.2785   0.0000   0.0000   0.0000   0.1866
 -23.000  -0.4037   0.25164   0.24734  -0.0101  1.0000  0.0143  -1.2732   0.0000   0.0000   0.0000   0.1827
 -22.750  -0.3963   0.24950   0.24521  -0.0114  1.0000  0.0144  -1.2686   0.0000   0.0000   0.0000   0.1787
 -22.500  -0.3889   0.24734   0.24306  -0.0127  1.0000  0.0146  -1.2642   0.0000   0.0000   0.0000   0.1746
 -22.250  -0.3815   0.24517   0.24090  -0.0140  1.0000  0.0148  -1.2603   0.0000   0.0000   0.0000   0.1703
 -22.000  -0.3741   0.24299   0.23873  -0.0153  1.0000  0.0150  -1.2571   0.0000   0.0000   0.0000   0.1660
 -21.750  -0.3667   0.24081   0.23657  -0.0166  1.0000  0.0151  -1.2546   0.0000   0.0000   0.0000   0.1615
 -21.500  -0.3593   0.23860   0.23436  -0.0178  1.0000  0.0152  -1.2530   0.0000   0.0000   0.0000   0.1569
 -20.250  -0.3228   0.22750   0.22334  -0.0237  1.0000  0.0155  -1.2669   0.0000   0.0000   0.0000   0.1316
 -20.000  -0.3157   0.22527   0.22113  -0.0247  1.0000  0.0156  -1.2506   0.0000   0.0000   0.0000   0.1266
 -19.750  -0.3085   0.22313   0.21901  -0.0256  1.0000  0.0158  -1.2394   0.0000   0.0000   0.0000   0.1213
 -19.500  -0.3014   0.22097   0.21687  -0.0266  1.0000  0.0159  -1.2310   0.0000   0.0000   0.0000   0.1159
 -19.250  -0.2944   0.21880   0.21472  -0.0275  1.0000  0.0161  -1.2241   0.0000   0.0000   0.0000   0.1102
 -19.000  -0.2874   0.21662   0.21257  -0.0284  1.0000  0.0163  -1.2182   0.0000   0.0000   0.0000   0.1044
 -18.750  -0.2805   0.21444   0.21040  -0.0293  1.0000  0.0165  -1.2134   0.0000   0.0000   0.0000   0.0985
 -18.500  -0.2737   0.21224   0.20823  -0.0301  1.0000  0.0168  -1.2099   0.0000   0.0000   0.0000   0.0924
 -18.250  -0.2669   0.21004   0.20605  -0.0309  1.0000  0.0169  -1.2081   0.0000   0.0000   0.0000   0.0862
 -18.000  -0.2603   0.20786   0.20389  -0.0317  1.0000  0.0171  -1.2083   0.0000   0.0000   0.0000   0.0798
 -17.750  -0.2538   0.20571   0.20176  -0.0325  1.0000  0.0172  -1.2108   0.0000   0.0000   0.0000   0.0733
 -17.000  -0.2354   0.19918   0.19532  -0.0344  1.0000  0.0174  -1.2344   0.0000   0.0000   0.0000   0.0537
 -16.750  -0.2295   0.19703   0.19320  -0.0348  1.0000  0.0175  -1.2170   0.0000   0.0000   0.0000   0.0479
 -16.500  -0.2237   0.19494   0.19114  -0.0352  1.0000  0.0177  -1.2066   0.0000   0.0000   0.0000   0.0419
 -16.250  -0.2182   0.19289   0.18912  -0.0355  1.0000  0.0179  -1.2001   0.0000   0.0000   0.0000   0.0361
 -16.000  -0.2130   0.19084   0.18710  -0.0358  1.0000  0.0180  -1.1961   0.0000   0.0000   0.0000   0.0305
 -15.750  -0.2081   0.18886   0.18516  -0.0359  1.0000  0.0183  -1.1940   0.0000   0.0000   0.0000   0.0254
 -15.500  -0.2036   0.18689   0.18323  -0.0360  1.0000  0.0185  -1.1936   0.0000   0.0000   0.0000   0.0210
 -15.250  -0.1996   0.18498   0.18136  -0.0360  1.0000  0.0187  -1.1951   0.0000   0.0000   0.0000   0.0176
 -15.000  -0.1964   0.18314   0.17956  -0.0359  1.0000  0.0189  -1.1995   0.0000   0.0000   0.0000   0.0155
 -14.750  -0.1940   0.18141   0.17789  -0.0355  1.0000  0.0190  -1.2097   0.0000   0.0000   0.0000   0.0155
 -14.250  -0.1817   0.17716   0.17371  -0.0374  0.9987  0.0193  -1.2354   0.0000   0.0000   0.0000  -0.0095
 -14.000  -0.1589   0.17323   0.16978  -0.0425  0.9963  0.0195  -1.1892   0.0000   0.0000   0.0000  -0.0787
 -13.750  -0.1365   0.16932   0.16587  -0.0476  0.9932  0.0198  -1.1606   0.0000   0.0000   0.0000  -0.1699
 -13.500  -0.1138   0.16552   0.16205  -0.0528  0.9908  0.0202  -1.1413   0.0000   0.0000   0.0000  -0.3003
 -13.250  -0.0922   0.16157   0.15809  -0.0577  0.9870  0.0206  -1.1373   0.0000   0.0000   0.0000  -0.4821
 -13.000  -0.0701   0.15767   0.15418  -0.0628  0.9841  0.0209  -1.1410   0.0000   0.0000   0.0000  -0.7863
 -12.750  -0.0489   0.15379   0.15029  -0.0678  0.9802  0.0211  -1.1594   0.0000   0.0000   0.0000  -1.3390
 -12.500  -0.0284   0.14989   0.14639  -0.0725  0.9761  0.0213  -1.1735   0.0000   0.0000   0.0000  -2.6469
 -12.250  -0.0064   0.14592   0.14241  -0.0770  0.9730  0.0215  -1.1314   0.0000   0.0000   0.0000  -13.4084
 -12.000   0.0134   0.14218   0.13867  -0.0809  0.9674  0.0219  -1.1102   0.0000   0.0000   0.0000   7.0387
 -11.750   0.0325   0.13845   0.13495  -0.0848  0.9613  0.0224  -1.0984   0.0000   0.0000   0.0000   3.1576
 -11.500   0.0507   0.13476   0.13126  -0.0884  0.9539  0.0228  -1.0950   0.0000   0.0000   0.0000   2.1843
 -11.250   0.0679   0.13120   0.12769  -0.0919  0.9453  0.0232  -1.1078   0.0000   0.0000   0.0000   1.7455
 -11.000   0.0817   0.12792   0.12443  -0.0946  0.9326  0.0234  -1.1261   0.0000   0.0000   0.0000   1.5233
 -10.750   0.0981   0.12444   0.12095  -0.0969  0.9211  0.0238  -1.0793   0.0000   0.0000   0.0000   1.3329
 -10.500   0.1167   0.12093   0.11742  -0.1002  0.9109  0.0244  -1.0550   0.0000   0.0000   0.0000   1.1875
 -10.250   0.1381   0.11716   0.11362  -0.1045  0.9014  0.0250  -1.0448   0.0000   0.0000   0.0000   1.0729
 -10.000   0.1630   0.11317   0.10958  -0.1103  0.8922  0.0254  -1.0778   0.0000   0.0000   0.0000   0.9830
  -9.750   0.1933   0.10868   0.10502  -0.1168  0.8832  0.0258  -1.0565   0.0000   0.0000   0.0000   0.9019
  -9.500   0.2307   0.10400   0.10025  -0.1252  0.8741  0.0265  -1.0216   0.0000   0.0000   0.0000   0.8334
  -9.250   0.2744   0.09902   0.09515  -0.1361  0.8639  0.0275  -1.0193   0.0000   0.0000   0.0000   0.7805
  -9.000   0.3205   0.09399   0.08995  -0.1476  0.8509  0.0280  -1.0175   0.0000   0.0000   0.0000   0.7409
  -8.750   0.3601   0.08986   0.08563  -0.1563  0.8334  0.0289  -0.9806   0.0000   0.0000   0.0000   0.7113
  -8.500   0.3860   0.08687   0.08245  -0.1617  0.8145  0.0299  -0.9961   0.0000   0.0000   0.0000   0.6943
  -8.250   0.4013   0.08465   0.08008  -0.1648  0.7978  0.0303  -1.0061   0.0000   0.0000   0.0000   0.6845
  -8.000   0.4159   0.08245   0.07776  -0.1658  0.7836  0.0308  -1.0174   0.0000   0.0000   0.0000   0.6710
  -7.750   0.4275   0.08058   0.07580  -0.1667  0.7713  0.0316  -1.0271   0.0000   0.0000   0.0000   0.6611
  -7.500   0.4368   0.07887   0.07401  -0.1677  0.7606  0.0325  -1.0339   0.0000   0.0000   0.0000   0.6540
  -7.250   0.4473   0.07695   0.07201  -0.1684  0.7512  0.0331  -1.0426   0.0000   0.0000   0.0000   0.6455
  -7.000   0.4568   0.07526   0.07029  -0.1683  0.7416  0.0340  -1.0516   0.0000   0.0000   0.0000   0.6364
  -6.750   0.4645   0.07365   0.06864  -0.1687  0.7329  0.0351  -1.0576   0.0000   0.0000   0.0000   0.6301
  -6.500   0.4720   0.07198   0.06691  -0.1694  0.7256  0.0355  -1.0629   0.0000   0.0000   0.0000   0.6250
  -6.250   0.4818   0.07022   0.06514  -0.1689  0.7178  0.0363  -1.0735   0.0000   0.0000   0.0000   0.6156
  -6.000   0.4900   0.06863   0.06353  -0.1689  0.7110  0.0373  -1.0813   0.0000   0.0000   0.0000   0.6088
  -5.750   0.4920   0.06740   0.06229  -0.1688  0.7044  0.0381  -1.0831   0.0000   0.0000   0.0000   0.6065
  -5.500   0.5000   0.06576   0.06064  -0.1683  0.6983  0.0387  -1.0914   0.0000   0.0000   0.0000   0.5991
  -5.250   0.5106   0.06415   0.05901  -0.1684  0.6922  0.0397  -1.1011   0.0000   0.0000   0.0000   0.5915
  -5.000   0.5200   0.06256   0.05741  -0.1703  0.6866  0.0411  -1.1066   0.0000   0.0000   0.0000   0.5882
  -4.750   0.5315   0.06074   0.05558  -0.1708  0.6809  0.0418  -1.1160   0.0000   0.0000   0.0000   0.5814
  -4.500   0.5464   0.05899   0.05379  -0.1721  0.6761  0.0433  -1.1275   0.0000   0.0000   0.0000   0.5742
  -4.250   0.5610   0.05699   0.05182  -0.1759  0.6702  0.0447  -1.1346   0.0000   0.0000   0.0000   0.5718
  -4.000   0.5789   0.05519   0.04994  -0.1766  0.6657  0.0463  -1.1507   0.0000   0.0000   0.0000   0.5627
  -3.750   0.5970   0.05306   0.04785  -0.1805  0.6600  0.0483  -1.1612   0.0000   0.0000   0.0000   0.5590
  -3.500   0.6280   0.05045   0.04516  -0.1878  0.6551  0.0517  -1.1784   0.0000   0.0000   0.0000   0.5550
  -3.250   0.6427   0.04900   0.04370  -0.1867  0.6506  0.0534  -1.1937   0.0000   0.0000   0.0000   0.5458
  -3.000   0.6734   0.04642   0.04109  -0.1928  0.6455  0.0564  -1.2119   0.0000   0.0000   0.0000   0.5408
  -2.750   0.7142   0.04360   0.03813  -0.2008  0.6414  0.0605  -1.2368   0.0000   0.0000   0.0000   0.5349
  -1.250   1.0552   0.02274   0.01517  -0.2589  0.6131  0.0591  -1.4508   0.0000   0.0000   0.0000   0.4954
  -1.000   1.0988   0.02114   0.01303  -0.2623  0.6086  0.0548  -1.4834   0.0000   0.0000   0.0000   0.4883
  -0.750   1.1375   0.02027   0.01175  -0.2645  0.6050  0.0539  -1.5149   0.0000   0.0000   0.0000   0.4816
  -0.500   1.1668   0.01982   0.01118  -0.2648  0.6000  0.0564  -1.5413   0.0000   0.0000   0.0000   0.4755
  -0.250   1.1982   0.01943   0.01067  -0.2654  0.5958  0.0588  -1.5703   0.0000   0.0000   0.0000   0.4696
   0.000   1.2309   0.01919   0.01030  -0.2663  0.5923  0.0643  -1.6008   0.0000   0.0000   0.0000   0.4640
   0.250   1.2584   0.01900   0.01025  -0.2664  0.5874  0.0708  -1.6267   0.0000   0.0000   0.0000   0.4589
   0.500   1.2902   0.01885   0.01011  -0.2673  0.5835  0.0855  -1.6567   0.0000   0.0000   0.0000   0.4539
   0.750   1.3248   0.01857   0.01020  -0.2689  0.5798  0.2370  -1.6884   0.0000   0.0000   0.0000   0.4492
   1.000   1.3499   0.01874   0.01045  -0.2685  0.5749  0.2996  -1.7140   0.0000   0.0000   0.0000   0.4447
   1.250   1.3792   0.01882   0.01057  -0.2689  0.5711  0.3563  -1.7440   0.0000   0.0000   0.0000   0.4403
   1.500   1.4084   0.01888   0.01083  -0.2694  0.5674  0.4386  -1.7735   0.0000   0.0000   0.0000   0.4362
   1.750   1.4313   0.01863   0.01128  -0.2683  0.5631  0.7673  -1.7992   0.0000   0.0000   0.0000   0.4319
   2.000   1.4515   0.01855   0.01120  -0.2665  0.5597  1.0000  -1.8249   0.0000   0.0000   0.0000   0.4276
   2.250   1.4802   0.01886   0.01134  -0.2668  0.5563  1.0000  -1.8568   0.0000   0.0000   0.0000   0.4237
   2.500   1.5043   0.01917   0.01162  -0.2662  0.5517  1.0000  -1.8848   0.0000   0.0000   0.0000   0.4199
   2.750   1.5324   0.01943   0.01174  -0.2663  0.5481  1.0000  -1.9167   0.0000   0.0000   0.0000   0.4163
   3.000   1.5602   0.01974   0.01194  -0.2664  0.5447  1.0000  -1.9483   0.0000   0.0000   0.0000   0.4128
   3.250   1.5835   0.02008   0.01229  -0.2657  0.5403  1.0000  -1.9756   0.0000   0.0000   0.0000   0.4094
   3.500   1.6109   0.02035   0.01246  -0.2657  0.5368  1.0000  -2.0072   0.0000   0.0000   0.0000   0.4060
   3.750   1.6394   0.02066   0.01267  -0.2660  0.5337  1.0000  -2.0396   0.0000   0.0000   0.0000   0.4029
   4.000   1.6608   0.02105   0.01311  -0.2649  0.5292  1.0000  -2.0654   0.0000   0.0000   0.0000   0.3997
   4.250   1.6874   0.02133   0.01333  -0.2648  0.5257  1.0000  -2.0964   0.0000   0.0000   0.0000   0.3966
   4.500   1.7167   0.02163   0.01352  -0.2653  0.5227  1.0000  -2.1299   0.0000   0.0000   0.0000   0.3937
   4.750   1.7361   0.02206   0.01404  -0.2639  0.5182  1.0000  -2.1537   0.0000   0.0000   0.0000   0.3907
   5.000   1.7619   0.02235   0.01429  -0.2637  0.5146  1.0000  -2.1874   0.0000   0.0000   0.0000   0.3879
   5.250   1.7920   0.02263   0.01446  -0.2643  0.5118  1.0000  -2.2260   0.0000   0.0000   0.0000   0.3852
   5.500   1.8093   0.02313   0.01510  -0.2625  0.5073  1.0000  -2.2517   0.0000   0.0000   0.0000   0.3823
   5.750   1.8341   0.02346   0.01541  -0.2622  0.5038  1.0000  -2.2853   0.0000   0.0000   0.0000   0.3797
   6.000   1.8643   0.02372   0.01557  -0.2628  0.5011  1.0000  -2.3244   0.0000   0.0000   0.0000   0.3772
   6.250   1.8804   0.02427   0.01627  -0.2609  0.4967  1.0000  -2.3490   0.0000   0.0000   0.0000   0.3745
   6.500   1.9039   0.02465   0.01667  -0.2604  0.4933  1.0000  -2.3813   0.0000   0.0000   0.0000   0.3720
   6.750   1.9330   0.02493   0.01688  -0.2608  0.4905  1.0000  -2.4211   0.0000   0.0000   0.0000   0.3696
   7.000   1.9499   0.02551   0.01758  -0.2591  0.4866  1.0000  -2.4486   0.0000   0.0000   0.0000   0.3671
   7.250   1.9709   0.02592   0.01804  -0.2581  0.4828  1.0000  -2.4808   0.0000   0.0000   0.0000   0.3646
   7.500   1.9994   0.02618   0.01825  -0.2585  0.4798  1.0000  -2.5209   0.0000   0.0000   0.0000   0.3624
   7.750   2.0157   0.02678   0.01897  -0.2567  0.4760  1.0000  -2.5480   0.0000   0.0000   0.0000   0.3600
   8.000   2.0348   0.02725   0.01951  -0.2554  0.4722  1.0000  -2.5783   0.0000   0.0000   0.0000   0.3576
   8.250   2.0627   0.02750   0.01973  -0.2558  0.4692  1.0000  -2.6181   0.0000   0.0000   0.0000   0.3555
   8.500   2.0777   0.02814   0.02048  -0.2538  0.4653  1.0000  -2.6440   0.0000   0.0000   0.0000   0.3532
   8.750   2.0948   0.02867   0.02111  -0.2522  0.4615  1.0000  -2.6722   0.0000   0.0000   0.0000   0.3509
   9.000   2.1222   0.02898   0.02140  -0.2524  0.4587  1.0000  -2.7113   0.0000   0.0000   0.0000   0.3489
   9.250   2.1381   0.02965   0.02219  -0.2507  0.4552  1.0000  -2.7378   0.0000   0.0000   0.0000   0.3466
   9.500   2.1502   0.03034   0.02300  -0.2483  0.4513  1.0000  -2.7617   0.0000   0.0000   0.0000   0.3443
   9.750   2.1762   0.03063   0.02329  -0.2483  0.4482  1.0000  -2.8128   0.0000   0.0000   0.0000   0.3424
  10.000   2.1895   0.03132   0.02409  -0.2461  0.4446  1.0000  -2.8585   0.0000   0.0000   0.0000   0.3401
  10.250   2.1977   0.03207   0.02498  -0.2431  0.4407  1.0000  -2.9067   0.0000   0.0000   0.0000   0.3378
  10.500   2.2238   0.03242   0.02535  -0.2432  0.4378  1.0000  -2.9816   0.0000   0.0000   0.0000   0.3359
  10.750   2.2365   0.03315   0.02619  -0.2410  0.4345  1.0000  -3.0367   0.0000   0.0000   0.0000   0.3338
  11.000   2.2345   0.03411   0.02730  -0.2363  0.4304  1.0000  -3.0706   0.0000   0.0000   0.0000   0.3312
  11.250   2.2667   0.03400   0.02713  -0.2373  0.4264  1.0000  -3.1652   0.0000   0.0000   0.0000   0.3295
  11.500   2.2488   0.03538   0.02873  -0.2300  0.4215  1.0000  -3.1811   0.0000   0.0000   0.0000   0.3266
  11.750   2.2685   0.03544   0.02877  -0.2289  0.4165  1.0000  -3.2666   0.0000   0.0000   0.0000   0.3246
  12.000   2.2568   0.03687   0.03038  -0.2231  0.4115  1.0000  -3.2970   0.0000   0.0000   0.0000   0.3220
  12.250   2.2688   0.03741   0.03096  -0.2210  0.4069  1.0000  -3.3735   0.0000   0.0000   0.0000   0.3199
  12.500   2.2706   0.03861   0.03228  -0.2177  0.4027  1.0000  -3.4298   0.0000   0.0000   0.0000   0.3177
  12.750   2.2669   0.04011   0.03393  -0.2138  0.3983  1.0000  -3.4752   0.0000   0.0000   0.0000   0.3156
  13.000   2.2894   0.04035   0.03417  -0.2133  0.3942  1.0000  -3.5786   0.0000   0.0000   0.0000   0.3138
  13.250   2.2668   0.04302   0.03707  -0.2075  0.3893  1.0000  -3.5882   0.0000   0.0000   0.0000   0.3115
  13.500   2.2962   0.04275   0.03675  -0.2078  0.3849  1.0000  -3.7118   0.0000   0.0000   0.0000   0.3098
  13.750   2.2630   0.04645   0.04074  -0.2015  0.3798  1.0000  -3.6973   0.0000   0.0000   0.0000   0.3077
  14.000   2.2843   0.04663   0.04091  -0.2009  0.3753  1.0000  -3.8050   0.0000   0.0000   0.0000   0.3060
  14.250   2.2546   0.05066   0.04518  -0.1960  0.3700  1.0000  -3.7976   0.0000   0.0000   0.0000   0.3043
  14.500   2.2742   0.05092   0.04543  -0.1953  0.3652  1.0000  -3.9297   0.0000   0.0000   0.0000   0.3026
  14.750   2.2411   0.05576   0.05053  -0.1910  0.3595  1.0000  -3.9143   0.0000   0.0000   0.0000   0.3012
  15.000   2.2573   0.05628   0.05104  -0.1902  0.3543  1.0000  -4.0399   0.0000   0.0000   0.0000   0.2995
  15.250   2.2260   0.06156   0.05655  -0.1869  0.3481  1.0000  -4.0277   0.0000   0.0000   0.0000   0.2985
  15.500   2.2182   0.06472   0.05981  -0.1852  0.3423  1.0000  -4.0834   0.0000   0.0000   0.0000   0.2973
  15.750   2.2175   0.06716   0.06232  -0.1839  0.3363  1.0000  -4.1602   0.0000   0.0000   0.0000   0.2960
  16.000   2.1886   0.07312   0.06848  -0.1821  0.3296  1.0000  -4.1514   0.0000   0.0000   0.0000   0.2955
  16.250   2.1836   0.07633   0.07177  -0.1811  0.3233  1.0000  -4.2149   0.0000   0.0000   0.0000   0.2945
  16.500   2.1811   0.07928   0.07478  -0.1803  0.3167  1.0000  -4.2928   0.0000   0.0000   0.0000   0.2934
  16.750   2.1526   0.08586   0.08154  -0.1796  0.3091  1.0000  -4.2828   0.0000   0.0000   0.0000   0.2934
  17.000   2.1355   0.09108   0.08688  -0.1793  0.3016  1.0000  -4.3096   0.0000   0.0000   0.0000   0.2931
  17.250   2.1256   0.09536   0.09124  -0.1791  0.2940  1.0000  -4.3602   0.0000   0.0000   0.0000   0.2927
  17.500   2.1169   0.09953   0.09548  -0.1791  0.2860  1.0000  -4.4161   0.0000   0.0000   0.0000   0.2922
  17.750   2.1089   0.10365   0.09966  -0.1792  0.2777  1.0000  -4.5131   0.0000   0.0000   0.0000   0.2918
  18.000   2.0959   0.10859   0.10467  -0.1796  0.2687  1.0000  -4.5826   0.0000   0.0000   0.0000   0.2917
  18.250   2.0812   0.11387   0.11003  -0.1804  0.2591  1.0000  -4.6400   0.0000   0.0000   0.0000   0.2919
  18.500   2.0660   0.11929   0.11553  -0.1813  0.2490  1.0000  -4.6921   0.0000   0.0000   0.0000   0.2922
  18.750   2.0515   0.12463   0.12094  -0.1825  0.2382  1.0000  -4.7487   0.0000   0.0000   0.0000   0.2926
  19.000   2.0421   0.12916   0.12548  -0.1836  0.2272  1.0000  -4.8358   0.0000   0.0000   0.0000   0.2927
  19.250   2.0370   0.13292   0.12920  -0.1845  0.2161  1.0000  -4.9493   0.0000   0.0000   0.0000   0.2926
  19.500   2.0244   0.13802   0.13432  -0.1861  0.2045  1.0000  -5.0122   0.0000   0.0000   0.0000   0.2931
  19.750   2.0152   0.14251   0.13879  -0.1876  0.1931  1.0000  -5.0955   0.0000   0.0000   0.0000   0.2935
  20.000   2.0086   0.14650   0.14271  -0.1889  0.1822  1.0000  -5.1957   0.0000   0.0000   0.0000   0.2937
  20.250   1.9997   0.15094   0.14714  -0.1907  0.1717  1.0000  -5.2779   0.0000   0.0000   0.0000   0.2941
  20.500   1.9926   0.15503   0.15119  -0.1923  0.1619  1.0000  -5.3709   0.0000   0.0000   0.0000   0.2945
  20.750   1.9869   0.15890   0.15501  -0.1940  0.1529  1.0000  -5.4732   0.0000   0.0000   0.0000   0.2948
  21.000   1.9822   0.16254   0.15862  -0.1956  0.1445  1.0000  -5.5822   0.0000   0.0000   0.0000   0.2951
  21.250   1.9783   0.16605   0.16209  -0.1973  0.1368  1.0000  -5.6959   0.0000   0.0000   0.0000   0.2953
  21.500   1.9747   0.16953   0.16558  -0.1991  0.1295  1.0000  -5.8105   0.0000   0.0000   0.0000   0.2955
  21.750   1.9717   0.17290   0.16894  -0.2009  0.1227  1.0000  -5.9299   0.0000   0.0000   0.0000   0.2957
  22.000   1.9693   0.17614   0.17219  -0.2026  0.1164  1.0000  -6.0533   0.0000   0.0000   0.0000   0.2959
  22.250   1.9676   0.17926   0.17530  -0.2044  0.1104  1.0000  -6.1819   0.0000   0.0000   0.0000   0.2960
  22.500   1.9665   0.18224   0.17828  -0.2062  0.1049  1.0000  -6.3156   0.0000   0.0000   0.0000   0.2961
  22.750   1.9669   0.18488   0.18088  -0.2078  0.0997  1.0000  -6.4638   0.0000   0.0000   0.0000   0.2960
  23.000   1.9647   0.18810   0.18416  -0.2098  0.0947  1.0000  -6.5869   0.0000   0.0000   0.0000   0.2963
  23.250   1.9632   0.19121   0.18733  -0.2119  0.0899  1.0000  -6.7146   0.0000   0.0000   0.0000   0.2966
  23.500   1.9630   0.19400   0.19014  -0.2137  0.0856  1.0000  -6.8551   0.0000   0.0000   0.0000   0.2966
  23.750   1.9643   0.19644   0.19256  -0.2154  0.0815  1.0000  -7.0118   0.0000   0.0000   0.0000   0.2965
  24.000   1.9625   0.19954   0.19572  -0.2177  0.0774  1.0000  -7.1385   0.0000   0.0000   0.0000   0.2969
  24.250   1.9608   0.20264   0.19889  -0.2200  0.0736  1.0000  -7.2645   0.0000   0.0000   0.0000   0.2972
  24.500   1.9607   0.20534   0.20162  -0.2220  0.0700  1.0000  -7.4081   0.0000   0.0000   0.0000   0.2973
  24.750   1.9620   0.20772   0.20395  -0.2239  0.0665  1.0000  -7.5715   0.0000   0.0000   0.0000   0.2973
  25.000   1.9575   0.21138   0.20775  -0.2268  0.0631  1.0000  -7.6758   0.0000   0.0000   0.0000   0.2981


