xflr5 v6.59

 Calculated polar for: TKV2008

 1 1 Reynolds number fixed          Mach number fixed         

 xtrf =   1.000 (top)        1.000 (bottom)
 Mach =   0.000     Re =     0.450 e 6     Ncrit =   9.000

  alpha     CL        CD       CDp       Cm    Top Xtr Bot Xtr   Cpmin    Chinge    XCp    
 ------- -------- --------- --------- -------- ------- ------- -------- --------- ---------
 -25.000  -0.4710   0.26907   0.26617   0.0047  1.0000  0.0083  -1.3350   0.0000   0.0000   0.0000   0.2191
 -24.750  -0.4637   0.26690   0.26401   0.0032  1.0000  0.0084  -1.3264   0.0000   0.0000   0.0000   0.2160
 -24.500  -0.4564   0.26472   0.26184   0.0017  1.0000  0.0085  -1.3189   0.0000   0.0000   0.0000   0.2128
 -24.250  -0.4490   0.26253   0.25965   0.0002  1.0000  0.0086  -1.3182   0.0000   0.0000   0.0000   0.2095
 -24.000  -0.4416   0.26033   0.25746  -0.0013  1.0000  0.0086  -1.3181   0.0000   0.0000   0.0000   0.2061
 -23.750  -0.4342   0.25808   0.25521  -0.0027  1.0000  0.0087  -1.3188   0.0000   0.0000   0.0000   0.2026
 -23.500  -0.4268   0.25581   0.25294  -0.0042  1.0000  0.0087  -1.3210   0.0000   0.0000   0.0000   0.1990
 -22.500  -0.3972   0.24673   0.24389  -0.0099  1.0000  0.0088  -1.3885   0.0000   0.0000   0.0000   0.1834
 -22.250  -0.3901   0.24455   0.24172  -0.0110  1.0000  0.0089  -1.3578   0.0000   0.0000   0.0000   0.1799
 -22.000  -0.3829   0.24241   0.23959  -0.0123  1.0000  0.0089  -1.3349   0.0000   0.0000   0.0000   0.1761
 -21.750  -0.3756   0.24030   0.23750  -0.0135  1.0000  0.0090  -1.3172   0.0000   0.0000   0.0000   0.1721
 -21.500  -0.3683   0.23815   0.23535  -0.0147  1.0000  0.0091  -1.3026   0.0000   0.0000   0.0000   0.1680
 -21.250  -0.3609   0.23603   0.23324  -0.0159  1.0000  0.0092  -1.2898   0.0000   0.0000   0.0000   0.1637
 -21.000  -0.3536   0.23385   0.23107  -0.0171  1.0000  0.0093  -1.2781   0.0000   0.0000   0.0000   0.1593
 -20.750  -0.3463   0.23166   0.22889  -0.0182  1.0000  0.0094  -1.2672   0.0000   0.0000   0.0000   0.1548
 -20.500  -0.3390   0.22946   0.22670  -0.0193  1.0000  0.0095  -1.2566   0.0000   0.0000   0.0000   0.1502
 -20.250  -0.3318   0.22727   0.22452  -0.0204  1.0000  0.0096  -1.2509   0.0000   0.0000   0.0000   0.1454
 -20.000  -0.3246   0.22504   0.22231  -0.0214  1.0000  0.0098  -1.2505   0.0000   0.0000   0.0000   0.1406
 -19.750  -0.3175   0.22281   0.22008  -0.0224  1.0000  0.0099  -1.2511   0.0000   0.0000   0.0000   0.1357
 -19.500  -0.3105   0.22055   0.21784  -0.0234  1.0000  0.0100  -1.2528   0.0000   0.0000   0.0000   0.1306
 -19.250  -0.3035   0.21831   0.21561  -0.0243  1.0000  0.0101  -1.2559   0.0000   0.0000   0.0000   0.1255
 -17.500  -0.2574   0.20242   0.19983  -0.0300  1.0000  0.0104  -1.3142   0.0000   0.0000   0.0000   0.0866
 -17.250  -0.2513   0.20029   0.19772  -0.0304  1.0000  0.0105  -1.2830   0.0000   0.0000   0.0000   0.0817
 -17.000  -0.2454   0.19822   0.19567  -0.0309  1.0000  0.0105  -1.2648   0.0000   0.0000   0.0000   0.0767
 -16.750  -0.2396   0.19617   0.19364  -0.0313  1.0000  0.0106  -1.2521   0.0000   0.0000   0.0000   0.0717
 -16.500  -0.2341   0.19412   0.19161  -0.0316  1.0000  0.0107  -1.2426   0.0000   0.0000   0.0000   0.0669
 -14.000  -0.0578   0.15921   0.15667  -0.0711  0.9855  0.0121  -1.2152   0.0000   0.0000   0.0000  -1.1693
 -13.750  -0.0403   0.15576   0.15323  -0.0746  0.9831  0.0122  -1.1715   0.0000   0.0000   0.0000  -1.8721
 -13.500  -0.0215   0.15223   0.14969  -0.0785  0.9809  0.0123  -1.1495   0.0000   0.0000   0.0000  -3.9045
 -13.250  -0.0010   0.14855   0.14601  -0.0830  0.9794  0.0125  -1.1344   0.0000   0.0000   0.0000  -91.6037
 -13.000   0.0156   0.14509   0.14255  -0.0863  0.9760  0.0128  -1.1252   0.0000   0.0000   0.0000   6.4529
 -12.750   0.0351   0.14142   0.13886  -0.0904  0.9736  0.0131  -1.1195   0.0000   0.0000   0.0000   3.1295
 -12.500   0.0511   0.13794   0.13539  -0.0935  0.9694  0.0133  -1.1218   0.0000   0.0000   0.0000   2.2877
 -12.250   0.0699   0.13423   0.13167  -0.0974  0.9663  0.0135  -1.1335   0.0000   0.0000   0.0000   1.7960
 -11.500   0.0906   0.12610   0.12357  -0.0989  0.9195  0.0137  -1.2248   0.0000   0.0000   0.0000   1.4520
 -11.250   0.1155   0.12194   0.11938  -0.1037  0.9068  0.0138  -1.1518   0.0000   0.0000   0.0000   1.2344
 -11.000   0.1512   0.11696   0.11433  -0.1122  0.8971  0.0141  -1.0975   0.0000   0.0000   0.0000   1.0589
 -10.750   0.1978   0.11116   0.10843  -0.1240  0.8871  0.0145  -1.0540   0.0000   0.0000   0.0000   0.9298
 -10.000   0.3411   0.09512   0.09162  -0.1611  0.8077  0.0156  -1.0656   0.0000   0.0000   0.0000   0.7556
  -9.750   0.3520   0.09325   0.08956  -0.1618  0.7802  0.0158  -1.0303   0.0000   0.0000   0.0000   0.7412
  -9.500   0.3607   0.09148   0.08766  -0.1620  0.7605  0.0161  -1.0141   0.0000   0.0000   0.0000   0.7293
  -9.250   0.3689   0.08967   0.08575  -0.1622  0.7445  0.0165  -1.0095   0.0000   0.0000   0.0000   0.7183
  -9.000   0.3771   0.08781   0.08380  -0.1624  0.7313  0.0168  -1.0147   0.0000   0.0000   0.0000   0.7081
  -8.750   0.3850   0.08588   0.08181  -0.1628  0.7199  0.0171  -1.0384   0.0000   0.0000   0.0000   0.6988
  -8.500   0.3917   0.08394   0.07982  -0.1634  0.7100  0.0173  -1.1054   0.0000   0.0000   0.0000   0.6920
  -8.250   0.3997   0.08200   0.07781  -0.1637  0.7009  0.0174  -1.1118   0.0000   0.0000   0.0000   0.6831
  -8.000   0.4093   0.08019   0.07597  -0.1635  0.6921  0.0175  -1.0568   0.0000   0.0000   0.0000   0.6720
  -7.750   0.4183   0.07846   0.07421  -0.1636  0.6843  0.0177  -1.0284   0.0000   0.0000   0.0000   0.6624
  -7.250   0.4354   0.07494   0.07064  -0.1639  0.6704  0.0184  -1.0448   0.0000   0.0000   0.0000   0.6455
  -7.000   0.4433   0.07314   0.06879  -0.1641  0.6646  0.0189  -1.0518   0.0000   0.0000   0.0000   0.6382
  -6.250   0.4637   0.06783   0.06348  -0.1638  0.6473  0.0195  -1.0712   0.0000   0.0000   0.0000   0.6182
  -6.000   0.4707   0.06631   0.06193  -0.1633  0.6423  0.0199  -1.0793   0.0000   0.0000   0.0000   0.6110
  -5.750   0.4755   0.06479   0.06042  -0.1625  0.6373  0.0203  -1.0855   0.0000   0.0000   0.0000   0.6049
  -5.500   0.4777   0.06333   0.05897  -0.1614  0.6323  0.0208  -1.0894   0.0000   0.0000   0.0000   0.6002
  -5.250   0.4826   0.06122   0.05685  -0.1634  0.6281  0.0212  -1.2033   0.0000   0.0000   0.0000   0.6001
  -5.000   0.4929   0.05969   0.05534  -0.1623  0.6229  0.0215  -1.1100   0.0000   0.0000   0.0000   0.5899
  -4.750   0.5041   0.05812   0.05374  -0.1626  0.6185  0.0220  -1.1126   0.0000   0.0000   0.0000   0.5824
  -4.500   0.5168   0.05618   0.05180  -0.1643  0.6144  0.0229  -1.1214   0.0000   0.0000   0.0000   0.5768
  -4.250   0.5318   0.05358   0.04921  -0.1679  0.6101  0.0234  -1.1760   0.0000   0.0000   0.0000   0.5737
  -4.000   0.5471   0.05195   0.04755  -0.1686  0.6062  0.0238  -1.1422   0.0000   0.0000   0.0000   0.5654
  -3.750   0.5658   0.04991   0.04550  -0.1711  0.6021  0.0246  -1.1561   0.0000   0.0000   0.0000   0.5589
  -3.500   0.5954   0.04644   0.04201  -0.1786  0.5979  0.0256  -1.1855   0.0000   0.0000   0.0000   0.5556
  -3.250   0.6166   0.04478   0.04030  -0.1804  0.5940  0.0263  -1.1887   0.0000   0.0000   0.0000   0.5474
  -3.000   0.6609   0.04074   0.03620  -0.1909  0.5899  0.0280  -1.2118   0.0000   0.0000   0.0000   0.5430
  -1.500   1.0384   0.01641   0.00954  -0.2590  0.5652  0.0329  -1.4457   0.0000   0.0000   0.0000   0.4997
  -1.250   1.0774   0.01515   0.00787  -0.2613  0.5612  0.0300  -1.4770   0.0000   0.0000   0.0000   0.4923
  -1.000   1.1111   0.01462   0.00710  -0.2625  0.5577  0.0303  -1.5063   0.0000   0.0000   0.0000   0.4856
  -0.750   1.1406   0.01427   0.00677  -0.2629  0.5537  0.0316  -1.5332   0.0000   0.0000   0.0000   0.4793
  -0.500   1.1704   0.01402   0.00646  -0.2634  0.5498  0.0337  -1.5606   0.0000   0.0000   0.0000   0.4734
  -0.250   1.2011   0.01385   0.00619  -0.2640  0.5464  0.0357  -1.5895   0.0000   0.0000   0.0000   0.4676
   0.000   1.2298   0.01370   0.00607  -0.2642  0.5423  0.0388  -1.6178   0.0000   0.0000   0.0000   0.4622
   0.250   1.2589   0.01358   0.00596  -0.2645  0.5383  0.0423  -1.6466   0.0000   0.0000   0.0000   0.4570
   0.500   1.2888   0.01357   0.00589  -0.2650  0.5350  0.0485  -1.6761   0.0000   0.0000   0.0000   0.4520
   0.750   1.3175   0.01349   0.00587  -0.2652  0.5312  0.0611  -1.7045   0.0000   0.0000   0.0000   0.4473
   1.000   1.3480   0.01329   0.00600  -0.2661  0.5275  0.2087  -1.7344   0.0000   0.0000   0.0000   0.4429
   1.250   1.3755   0.01341   0.00611  -0.2661  0.5242  0.2484  -1.7628   0.0000   0.0000   0.0000   0.4385
   1.500   1.4022   0.01350   0.00624  -0.2659  0.5206  0.2788  -1.7907   0.0000   0.0000   0.0000   0.4342
   1.750   1.4287   0.01356   0.00638  -0.2658  0.5167  0.3191  -1.8191   0.0000   0.0000   0.0000   0.4301
   2.000   1.4569   0.01359   0.00655  -0.2661  0.5133  0.4051  -1.8504   0.0000   0.0000   0.0000   0.4262
   2.250   1.4842   0.01338   0.00695  -0.2662  0.5098  0.7301  -1.8821   0.0000   0.0000   0.0000   0.4225
   2.750   1.5303   0.01338   0.00712  -0.2641  0.5029  1.0000  -1.9391   0.0000   0.0000   0.0000   0.4148
   3.000   1.5568   0.01360   0.00726  -0.2640  0.4996  1.0000  -1.9702   0.0000   0.0000   0.0000   0.4113
   3.250   1.5816   0.01377   0.00741  -0.2634  0.4958  1.0000  -2.0000   0.0000   0.0000   0.0000   0.4078
   3.500   1.6068   0.01397   0.00755  -0.2630  0.4924  1.0000  -2.0305   0.0000   0.0000   0.0000   0.4045
   3.750   1.6329   0.01421   0.00772  -0.2628  0.4891  1.0000  -2.0616   0.0000   0.0000   0.0000   0.4013
   4.000   1.6565   0.01439   0.00791  -0.2621  0.4852  1.0000  -2.0906   0.0000   0.0000   0.0000   0.3981
   4.250   1.6808   0.01459   0.00808  -0.2615  0.4817  1.0000  -2.1204   0.0000   0.0000   0.0000   0.3949
   4.500   1.7065   0.01486   0.00827  -0.2613  0.4787  1.0000  -2.1514   0.0000   0.0000   0.0000   0.3920
   4.750   1.7293   0.01505   0.00850  -0.2604  0.4750  1.0000  -2.1797   0.0000   0.0000   0.0000   0.3890
   5.000   1.7526   0.01527   0.00871  -0.2596  0.4715  1.0000  -2.2087   0.0000   0.0000   0.0000   0.3861
   5.250   1.7774   0.01555   0.00892  -0.2593  0.4685  1.0000  -2.2404   0.0000   0.0000   0.0000   0.3833
   5.500   1.7988   0.01577   0.00918  -0.2581  0.4650  1.0000  -2.2714   0.0000   0.0000   0.0000   0.3804
   5.750   1.8206   0.01601   0.00944  -0.2571  0.4617  1.0000  -2.3029   0.0000   0.0000   0.0000   0.3777
   6.000   1.8439   0.01629   0.00968  -0.2565  0.4587  1.0000  -2.3359   0.0000   0.0000   0.0000   0.3750
   6.250   1.8658   0.01658   0.00998  -0.2555  0.4555  1.0000  -2.3674   0.0000   0.0000   0.0000   0.3724
   6.500   1.8856   0.01684   0.01027  -0.2542  0.4519  1.0000  -2.3973   0.0000   0.0000   0.0000   0.3697
   6.750   1.9066   0.01712   0.01055  -0.2531  0.4486  1.0000  -2.4284   0.0000   0.0000   0.0000   0.3672
   7.000   1.9276   0.01744   0.01087  -0.2520  0.4453  1.0000  -2.4613   0.0000   0.0000   0.0000   0.3647
   7.250   1.9459   0.01774   0.01122  -0.2505  0.4416  1.0000  -2.4917   0.0000   0.0000   0.0000   0.3621
   7.500   1.9657   0.01806   0.01155  -0.2492  0.4383  1.0000  -2.5238   0.0000   0.0000   0.0000   0.3597
   7.750   1.9864   0.01843   0.01191  -0.2482  0.4351  1.0000  -2.5566   0.0000   0.0000   0.0000   0.3573
   8.000   2.0040   0.01878   0.01234  -0.2465  0.4316  1.0000  -2.5863   0.0000   0.0000   0.0000   0.3549
   8.250   2.0230   0.01915   0.01273  -0.2452  0.4285  1.0000  -2.6176   0.0000   0.0000   0.0000   0.3525
   8.500   2.0449   0.01955   0.01310  -0.2444  0.4257  1.0000  -2.6517   0.0000   0.0000   0.0000   0.3503
   8.750   2.0600   0.01997   0.01362  -0.2424  0.4221  1.0000  -2.6788   0.0000   0.0000   0.0000   0.3479
   9.000   2.0771   0.02039   0.01409  -0.2408  0.4187  1.0000  -2.7082   0.0000   0.0000   0.0000   0.3456
   9.250   2.0974   0.02084   0.01451  -0.2398  0.4157  1.0000  -2.7409   0.0000   0.0000   0.0000   0.3435
   9.500   2.1115   0.02134   0.01512  -0.2377  0.4122  1.0000  -2.7670   0.0000   0.0000   0.0000   0.3412
   9.750   2.1274   0.02184   0.01568  -0.2360  0.4089  1.0000  -2.7950   0.0000   0.0000   0.0000   0.3390
  10.000   2.1459   0.02234   0.01617  -0.2348  0.4058  1.0000  -2.8284   0.0000   0.0000   0.0000   0.3369
  10.250   2.1578   0.02297   0.01691  -0.2325  0.4019  1.0000  -2.8757   0.0000   0.0000   0.0000   0.3347
  10.500   2.1692   0.02362   0.01761  -0.2301  0.3975  1.0000  -2.9291   0.0000   0.0000   0.0000   0.3325
  10.750   2.1806   0.02433   0.01837  -0.2279  0.3930  1.0000  -2.9829   0.0000   0.0000   0.0000   0.3303
  11.000   2.1892   0.02514   0.01926  -0.2252  0.3881  1.0000  -3.0326   0.0000   0.0000   0.0000   0.3281
  11.250   2.2002   0.02596   0.02010  -0.2230  0.3837  1.0000  -3.0861   0.0000   0.0000   0.0000   0.3260
  11.500   2.2081   0.02691   0.02116  -0.2205  0.3790  1.0000  -3.1369   0.0000   0.0000   0.0000   0.3239
  11.750   2.2195   0.02781   0.02207  -0.2186  0.3752  1.0000  -3.2042   0.0000   0.0000   0.0000   0.3219
  12.000   2.2269   0.02889   0.02328  -0.2162  0.3707  1.0000  -3.2679   0.0000   0.0000   0.0000   0.3199
  12.250   2.2345   0.03004   0.02447  -0.2139  0.3662  1.0000  -3.3347   0.0000   0.0000   0.0000   0.3179
  12.500   2.2415   0.03128   0.02581  -0.2117  0.3618  1.0000  -3.4006   0.0000   0.0000   0.0000   0.3160
  12.750   2.2478   0.03263   0.02723  -0.2095  0.3573  1.0000  -3.4653   0.0000   0.0000   0.0000   0.3142
  13.000   2.2541   0.03405   0.02871  -0.2075  0.3530  1.0000  -3.5323   0.0000   0.0000   0.0000   0.3124
  13.250   2.2580   0.03569   0.03045  -0.2054  0.3479  1.0000  -3.5985   0.0000   0.0000   0.0000   0.3106
  13.500   2.2617   0.03744   0.03227  -0.2033  0.3430  1.0000  -3.6644   0.0000   0.0000   0.0000   0.3089
  13.750   2.2638   0.03941   0.03432  -0.2013  0.3376  1.0000  -3.7271   0.0000   0.0000   0.0000   0.3073
  14.000   2.2657   0.04148   0.03647  -0.1994  0.3323  1.0000  -3.7897   0.0000   0.0000   0.0000   0.3057
  14.250   2.2664   0.04374   0.03881  -0.1976  0.3270  1.0000  -3.8594   0.0000   0.0000   0.0000   0.3042
  14.500   2.2668   0.04612   0.04130  -0.1959  0.3215  1.0000  -3.9384   0.0000   0.0000   0.0000   0.3028
  14.750   2.2651   0.04877   0.04398  -0.1942  0.3162  1.0000  -4.0122   0.0000   0.0000   0.0000   0.3014
  15.000   2.2636   0.05155   0.04689  -0.1927  0.3100  1.0000  -4.0862   0.0000   0.0000   0.0000   0.3001
  15.250   2.2603   0.05457   0.04998  -0.1913  0.3043  1.0000  -4.1557   0.0000   0.0000   0.0000   0.2988
  15.500   2.2551   0.05788   0.05336  -0.1899  0.2981  1.0000  -4.2250   0.0000   0.0000   0.0000   0.2977
  15.750   2.2494   0.06139   0.05697  -0.1887  0.2913  1.0000  -4.2942   0.0000   0.0000   0.0000   0.2966
  16.000   2.2418   0.06519   0.06085  -0.1875  0.2843  1.0000  -4.3576   0.0000   0.0000   0.0000   0.2957
  16.250   2.2319   0.06937   0.06509  -0.1865  0.2771  1.0000  -4.4137   0.0000   0.0000   0.0000   0.2948
  16.750   2.2089   0.07844   0.07430  -0.1848  0.2611  1.0000  -4.5144   0.0000   0.0000   0.0000   0.2934
  17.000   2.1956   0.08336   0.07928  -0.1842  0.2524  1.0000  -4.5836   0.0000   0.0000   0.0000   0.2929
  17.250   2.1805   0.08862   0.08459  -0.1838  0.2431  1.0000  -4.6535   0.0000   0.0000   0.0000   0.2925
  17.500   2.1639   0.09416   0.09018  -0.1837  0.2329  1.0000  -4.7184   0.0000   0.0000   0.0000   0.2923
  17.750   2.1469   0.09984   0.09589  -0.1837  0.2219  1.0000  -4.7784   0.0000   0.0000   0.0000   0.2922
  18.000   2.1280   0.10583   0.10190  -0.1840  0.2106  1.0000  -4.8260   0.0000   0.0000   0.0000   0.2923
  18.500   2.0910   0.11785   0.11392  -0.1854  0.1868  1.0000  -4.9140   0.0000   0.0000   0.0000   0.2929
  18.750   2.0720   0.12394   0.11999  -0.1865  0.1750  1.0000  -4.9499   0.0000   0.0000   0.0000   0.2935
  19.000   2.0555   0.12969   0.12572  -0.1877  0.1639  1.0000  -4.9968   0.0000   0.0000   0.0000   0.2940
  19.250   2.0406   0.13517   0.13119  -0.1891  0.1537  1.0000  -5.0502   0.0000   0.0000   0.0000   0.2946
  19.500   2.0275   0.14038   0.13638  -0.1906  0.1446  1.0000  -5.1121   0.0000   0.0000   0.0000   0.2951
  19.750   2.0165   0.14527   0.14127  -0.1922  0.1364  1.0000  -5.1845   0.0000   0.0000   0.0000   0.2957
  20.000   2.0078   0.14977   0.14577  -0.1938  0.1287  1.0000  -5.2708   0.0000   0.0000   0.0000   0.2961
  20.250   2.0001   0.15408   0.15009  -0.1954  0.1217  1.0000  -5.3633   0.0000   0.0000   0.0000   0.2965
  20.500   1.9938   0.15817   0.15419  -0.1971  0.1153  1.0000  -5.4636   0.0000   0.0000   0.0000   0.2968
  20.750   1.9885   0.16207   0.15812  -0.1988  0.1091  1.0000  -5.5700   0.0000   0.0000   0.0000   0.2971
  21.000   1.9836   0.16594   0.16200  -0.2005  0.1034  1.0000  -5.6783   0.0000   0.0000   0.0000   0.2975
  21.250   1.9791   0.16971   0.16579  -0.2024  0.0982  1.0000  -5.7895   0.0000   0.0000   0.0000   0.2978
  21.500   1.9750   0.17339   0.16948  -0.2042  0.0930  1.0000  -5.9032   0.0000   0.0000   0.0000   0.2981
  21.750   1.9712   0.17701   0.17311  -0.2062  0.0880  1.0000  -6.0188   0.0000   0.0000   0.0000   0.2985
  22.000   1.9685   0.18044   0.17658  -0.2080  0.0831  1.0000  -6.1426   0.0000   0.0000   0.0000   0.2987
  22.250   1.9664   0.18376   0.17993  -0.2099  0.0784  1.0000  -6.2707   0.0000   0.0000   0.0000   0.2990
  22.500   1.9637   0.18712   0.18332  -0.2120  0.0740  1.0000  -6.3946   0.0000   0.0000   0.0000   0.2993
  22.750   1.9609   0.19056   0.18678  -0.2141  0.0700  1.0000  -6.5167   0.0000   0.0000   0.0000   0.2997
  23.000   1.9583   0.19391   0.19015  -0.2162  0.0661  1.0000  -6.6406   0.0000   0.0000   0.0000   0.3000
  23.250   1.9562   0.19716   0.19342  -0.2184  0.0623  1.0000  -6.7690   0.0000   0.0000   0.0000   0.3004
  23.500   1.9547   0.20028   0.19659  -0.2205  0.0586  1.0000  -6.9020   0.0000   0.0000   0.0000   0.3007
  23.750   1.9533   0.20337   0.19971  -0.2227  0.0553  1.0000  -7.0355   0.0000   0.0000   0.0000   0.3010
  24.000   1.9512   0.20662   0.20299  -0.2250  0.0523  1.0000  -7.1704   0.0000   0.0000   0.0000   0.3014
  24.250   1.9489   0.20984   0.20623  -0.2273  0.0495  1.0000  -7.3044   0.0000   0.0000   0.0000   0.3018
  24.500   1.9487   0.21268   0.20912  -0.2295  0.0467  1.0000  -7.4578   0.0000   0.0000   0.0000   0.3020
  24.750   1.9474   0.21572   0.21221  -0.2318  0.0442  1.0000  -7.6007   0.0000   0.0000   0.0000   0.3024
  25.000   1.9453   0.21886   0.21538  -0.2343  0.0419  1.0000  -7.7364   0.0000   0.0000   0.0000   0.3029


