xflr5 v6.59

 Calculated polar for: TKV2008

 1 1 Reynolds number fixed          Mach number fixed         

 xtrf =   1.000 (top)        1.000 (bottom)
 Mach =   0.000     Re =     0.300 e 6     Ncrit =   9.000

  alpha     CL        CD       CDp       Cm    Top Xtr Bot Xtr   Cpmin    Chinge    XCp    
 ------- -------- --------- --------- -------- ------- ------- -------- --------- ---------
 -24.500  -0.4519   0.26429   0.26074   0.0000  1.0000  0.0104  -1.3505   0.0000   0.0000   0.0000   0.2085
 -24.250  -0.4447   0.26222   0.25868  -0.0014  1.0000  0.0105  -1.3300   0.0000   0.0000   0.0000   0.2053
 -24.000  -0.4374   0.26014   0.25661  -0.0029  1.0000  0.0106  -1.3141   0.0000   0.0000   0.0000   0.2019
 -23.750  -0.4301   0.25805   0.25452  -0.0043  1.0000  0.0107  -1.3009   0.0000   0.0000   0.0000   0.1984
 -23.500  -0.4227   0.25593   0.25241  -0.0057  1.0000  0.0109  -1.2894   0.0000   0.0000   0.0000   0.1948
 -23.250  -0.4153   0.25378   0.25028  -0.0071  1.0000  0.0110  -1.2831   0.0000   0.0000   0.0000   0.1911
 -23.000  -0.4079   0.25163   0.24813  -0.0085  1.0000  0.0111  -1.2805   0.0000   0.0000   0.0000   0.1873
 -20.250  -0.3271   0.22711   0.22373  -0.0222  1.0000  0.0120  -1.3059   0.0000   0.0000   0.0000   0.1380
 -20.000  -0.3200   0.22490   0.22154  -0.0231  1.0000  0.0121  -1.2831   0.0000   0.0000   0.0000   0.1333
 -19.750  -0.3130   0.22274   0.21939  -0.0241  1.0000  0.0122  -1.2674   0.0000   0.0000   0.0000   0.1284
 -19.500  -0.3059   0.22058   0.21725  -0.0250  1.0000  0.0123  -1.2560   0.0000   0.0000   0.0000   0.1232
 -19.250  -0.2989   0.21843   0.21511  -0.0259  1.0000  0.0124  -1.2471   0.0000   0.0000   0.0000   0.1179
 -19.000  -0.2919   0.21625   0.21295  -0.0268  1.0000  0.0125  -1.2398   0.0000   0.0000   0.0000   0.1124
 -18.750  -0.2851   0.21407   0.21078  -0.0277  1.0000  0.0127  -1.2335   0.0000   0.0000   0.0000   0.1068
 -18.500  -0.2782   0.21187   0.20861  -0.0285  1.0000  0.0128  -1.2280   0.0000   0.0000   0.0000   0.1011
 -18.250  -0.2715   0.20968   0.20643  -0.0293  1.0000  0.0130  -1.2230   0.0000   0.0000   0.0000   0.0953
 -18.000  -0.2649   0.20747   0.20424  -0.0300  1.0000  0.0131  -1.2186   0.0000   0.0000   0.0000   0.0894
 -17.750  -0.2584   0.20528   0.20207  -0.0307  1.0000  0.0133  -1.2153   0.0000   0.0000   0.0000   0.0835
 -17.500  -0.2521   0.20308   0.19989  -0.0314  1.0000  0.0135  -1.2145   0.0000   0.0000   0.0000   0.0775
 -17.250  -0.2459   0.20085   0.19769  -0.0320  1.0000  0.0136  -1.2191   0.0000   0.0000   0.0000   0.0714
 -17.000  -0.2399   0.19871   0.19557  -0.0326  1.0000  0.0136  -1.2379   0.0000   0.0000   0.0000   0.0652
 -16.250  -0.2235   0.19225   0.18918  -0.0339  1.0000  0.0137  -1.2743   0.0000   0.0000   0.0000   0.0483
 -16.000  -0.2184   0.19020   0.18716  -0.0341  1.0000  0.0138  -1.2517   0.0000   0.0000   0.0000   0.0440
 -15.750  -0.2137   0.18823   0.18523  -0.0342  1.0000  0.0139  -1.2373   0.0000   0.0000   0.0000   0.0400
 -15.500  -0.2095   0.18632   0.18335  -0.0341  1.0000  0.0141  -1.2279   0.0000   0.0000   0.0000   0.0368
 -15.250  -0.2059   0.18448   0.18155  -0.0340  1.0000  0.0142  -1.2217   0.0000   0.0000   0.0000   0.0348
 -15.000  -0.1891   0.18118   0.17825  -0.0377  0.9987  0.0144  -1.2081   0.0000   0.0000   0.0000  -0.0034
 -14.750  -0.1679   0.17745   0.17451  -0.0426  0.9967  0.0147  -1.1943   0.0000   0.0000   0.0000  -0.0652
 -14.500  -0.1473   0.17363   0.17068  -0.0474  0.9944  0.0149  -1.1837   0.0000   0.0000   0.0000  -0.1414
 -14.250  -0.1265   0.16986   0.16691  -0.0522  0.9922  0.0152  -1.1778   0.0000   0.0000   0.0000  -0.2442
 -13.250  -0.0462   0.15471   0.15173  -0.0702  0.9822  0.0158  -1.1502   0.0000   0.0000   0.0000  -1.4939
 -13.000  -0.0257   0.15104   0.14805  -0.0747  0.9799  0.0160  -1.1328   0.0000   0.0000   0.0000  -3.0588
 -12.750  -0.0066   0.14735   0.14437  -0.0787  0.9766  0.0163  -1.1226   0.0000   0.0000   0.0000  -13.1989
 -12.500   0.0134   0.14362   0.14063  -0.0829  0.9736  0.0166  -1.1162   0.0000   0.0000   0.0000   7.2034
 -12.250   0.0311   0.13998   0.13699  -0.0865  0.9689  0.0169  -1.1160   0.0000   0.0000   0.0000   3.3581
 -11.500   0.0761   0.12967   0.12669  -0.0952  0.9459  0.0173  -1.1690   0.0000   0.0000   0.0000   1.6300
 -11.000   0.0998   0.12369   0.12072  -0.0977  0.9136  0.0177  -1.1016   0.0000   0.0000   0.0000   1.3245
 -10.750   0.1225   0.11978   0.11678  -0.1023  0.9027  0.0181  -1.0778   0.0000   0.0000   0.0000   1.1628
 -10.500   0.1519   0.11530   0.11224  -0.1090  0.8932  0.0186  -1.0592   0.0000   0.0000   0.0000   1.0305
 -10.250   0.1885   0.11026   0.10710  -0.1181  0.8835  0.0191  -1.0694   0.0000   0.0000   0.0000   0.9282
 -10.000   0.2343   0.10462   0.10135  -0.1297  0.8732  0.0194  -1.0647   0.0000   0.0000   0.0000   0.8462
  -9.750   0.2903   0.09884   0.09539  -0.1438  0.8593  0.0201  -1.0102   0.0000   0.0000   0.0000   0.7808
  -9.500   0.3387   0.09383   0.09013  -0.1559  0.8356  0.0209  -1.0044   0.0000   0.0000   0.0000   0.7417
  -9.250   0.3620   0.09085   0.08690  -0.1614  0.8078  0.0212  -1.0592   0.0000   0.0000   0.0000   0.7250
  -9.000   0.3764   0.08854   0.08442  -0.1630  0.7863  0.0214  -1.0319   0.0000   0.0000   0.0000   0.7105
  -8.750   0.3876   0.08663   0.08239  -0.1636  0.7692  0.0217  -0.9982   0.0000   0.0000   0.0000   0.6981
  -8.500   0.3975   0.08481   0.08047  -0.1641  0.7552  0.0221  -1.0061   0.0000   0.0000   0.0000   0.6875
  -8.250   0.4068   0.08298   0.07856  -0.1645  0.7432  0.0225  -1.0138   0.0000   0.0000   0.0000   0.6780
  -8.000   0.4153   0.08114   0.07665  -0.1650  0.7327  0.0230  -1.0206   0.0000   0.0000   0.0000   0.6697
  -7.750   0.4214   0.07940   0.07486  -0.1659  0.7233  0.0233  -1.0642   0.0000   0.0000   0.0000   0.6650
  -7.500   0.4324   0.07743   0.07282  -0.1659  0.7148  0.0235  -1.0357   0.0000   0.0000   0.0000   0.6537
  -7.250   0.4414   0.07573   0.07110  -0.1658  0.7062  0.0239  -1.0447   0.0000   0.0000   0.0000   0.6446
  -7.000   0.4503   0.07401   0.06934  -0.1660  0.6989  0.0245  -1.0528   0.0000   0.0000   0.0000   0.6365
  -6.750   0.4581   0.07226   0.06756  -0.1662  0.6919  0.0252  -1.0593   0.0000   0.0000   0.0000   0.6298
  -6.250   0.4730   0.06878   0.06404  -0.1663  0.6793  0.0259  -1.0731   0.0000   0.0000   0.0000   0.6166
  -6.000   0.4809   0.06722   0.06248  -0.1660  0.6733  0.0266  -1.0816   0.0000   0.0000   0.0000   0.6092
  -5.750   0.4856   0.06569   0.06093  -0.1656  0.6676  0.0275  -1.0867   0.0000   0.0000   0.0000   0.6041
  -5.500   0.4882   0.06419   0.05944  -0.1655  0.6625  0.0279  -1.0890   0.0000   0.0000   0.0000   0.6015
  -5.250   0.4985   0.06258   0.05782  -0.1650  0.6570  0.0284  -1.0999   0.0000   0.0000   0.0000   0.5926
  -5.000   0.5104   0.06087   0.05606  -0.1660  0.6524  0.0292  -1.1097   0.0000   0.0000   0.0000   0.5859
  -4.750   0.5201   0.05890   0.05413  -0.1685  0.6470  0.0301  -1.1140   0.0000   0.0000   0.0000   0.5837
  -4.500   0.5337   0.05702   0.05221  -0.1692  0.6423  0.0305  -1.1257   0.0000   0.0000   0.0000   0.5759
  -4.250   0.5478   0.05530   0.05049  -0.1702  0.6374  0.0314  -1.1370   0.0000   0.0000   0.0000   0.5688
  -4.000   0.5704   0.05248   0.04765  -0.1768  0.6327  0.0328  -1.1468   0.0000   0.0000   0.0000   0.5673
  -3.750   0.5875   0.05090   0.04601  -0.1769  0.6288  0.0335  -1.1638   0.0000   0.0000   0.0000   0.5575
  -3.500   0.6192   0.04761   0.04273  -0.1855  0.6240  0.0355  -1.1787   0.0000   0.0000   0.0000   0.5552
  -3.250   0.6353   0.04622   0.04131  -0.1850  0.6196  0.0363  -1.1951   0.0000   0.0000   0.0000   0.5462
  -3.000   0.6734   0.04315   0.03815  -0.1931  0.6157  0.0387  -1.2174   0.0000   0.0000   0.0000   0.5409
  -2.750   0.7114   0.04018   0.03514  -0.2004  0.6108  0.0417  -1.2402   0.0000   0.0000   0.0000   0.5352
  -1.250   1.0575   0.01964   0.01259  -0.2584  0.5848  0.0526  -1.4627   0.0000   0.0000   0.0000   0.4942
  -1.000   1.1088   0.01738   0.00951  -0.2629  0.5813  0.0398  -1.4996   0.0000   0.0000   0.0000   0.4865
  -0.750   1.1406   0.01688   0.00874  -0.2636  0.5768  0.0412  -1.5268   0.0000   0.0000   0.0000   0.4800
  -0.500   1.1711   0.01645   0.00829  -0.2642  0.5727  0.0426  -1.5543   0.0000   0.0000   0.0000   0.4740
  -0.250   1.2032   0.01622   0.00794  -0.2651  0.5694  0.0458  -1.5847   0.0000   0.0000   0.0000   0.4683
   0.000   1.2317   0.01599   0.00775  -0.2653  0.5651  0.0488  -1.6121   0.0000   0.0000   0.0000   0.4628
   0.250   1.2616   0.01585   0.00761  -0.2657  0.5610  0.0545  -1.6411   0.0000   0.0000   0.0000   0.4576
   0.500   1.2937   0.01578   0.00748  -0.2667  0.5576  0.0637  -1.6720   0.0000   0.0000   0.0000   0.4527
   0.750   1.3232   0.01554   0.00747  -0.2672  0.5530  0.1107  -1.7003   0.0000   0.0000   0.0000   0.4480
   1.000   1.3524   0.01552   0.00768  -0.2677  0.5492  0.2536  -1.7293   0.0000   0.0000   0.0000   0.4435
   1.250   1.3820   0.01566   0.00778  -0.2681  0.5461  0.2935  -1.7593   0.0000   0.0000   0.0000   0.4391
   1.500   1.4074   0.01573   0.00799  -0.2678  0.5420  0.3398  -1.7862   0.0000   0.0000   0.0000   0.4349
   1.750   1.4356   0.01572   0.00818  -0.2681  0.5382  0.4259  -1.8155   0.0000   0.0000   0.0000   0.4309
   2.000   1.4627   0.01543   0.00853  -0.2679  0.5351  0.7988  -1.8469   0.0000   0.0000   0.0000   0.4269
   2.250   1.4819   0.01538   0.00857  -0.2660  0.5311  1.0000  -1.8718   0.0000   0.0000   0.0000   0.4228
   2.500   1.5084   0.01558   0.00869  -0.2658  0.5272  1.0000  -1.9026   0.0000   0.0000   0.0000   0.4190
   2.750   1.5366   0.01582   0.00878  -0.2660  0.5240  1.0000  -1.9351   0.0000   0.0000   0.0000   0.4154
   3.000   1.5618   0.01606   0.00900  -0.2656  0.5202  1.0000  -1.9647   0.0000   0.0000   0.0000   0.4119
   3.250   1.5875   0.01628   0.00918  -0.2652  0.5165  1.0000  -1.9949   0.0000   0.0000   0.0000   0.4085
   3.500   1.6149   0.01652   0.00932  -0.2653  0.5133  1.0000  -2.0270   0.0000   0.0000   0.0000   0.4052
   3.750   1.6401   0.01678   0.00956  -0.2649  0.5097  1.0000  -2.0569   0.0000   0.0000   0.0000   0.4019
   4.000   1.6644   0.01702   0.00979  -0.2643  0.5058  1.0000  -2.0861   0.0000   0.0000   0.0000   0.3988
   4.250   1.6910   0.01726   0.00995  -0.2642  0.5025  1.0000  -2.1177   0.0000   0.0000   0.0000   0.3957
   4.500   1.7159   0.01754   0.01021  -0.2638  0.4990  1.0000  -2.1475   0.0000   0.0000   0.0000   0.3927
   4.750   1.7390   0.01779   0.01048  -0.2631  0.4950  1.0000  -2.1759   0.0000   0.0000   0.0000   0.3898
   5.000   1.7648   0.01804   0.01068  -0.2628  0.4918  1.0000  -2.2069   0.0000   0.0000   0.0000   0.3869
   5.250   1.7902   0.01834   0.01095  -0.2626  0.4886  1.0000  -2.2410   0.0000   0.0000   0.0000   0.3842
   5.500   1.8118   0.01862   0.01128  -0.2615  0.4847  1.0000  -2.2719   0.0000   0.0000   0.0000   0.3814
   5.750   1.8365   0.01888   0.01152  -0.2612  0.4813  1.0000  -2.3060   0.0000   0.0000   0.0000   0.3787
   6.000   1.8630   0.01919   0.01177  -0.2611  0.4784  1.0000  -2.3416   0.0000   0.0000   0.0000   0.3762
   6.250   1.8827   0.01951   0.01219  -0.2598  0.4747  1.0000  -2.3707   0.0000   0.0000   0.0000   0.3735
   6.500   1.9061   0.01981   0.01249  -0.2592  0.4713  1.0000  -2.4035   0.0000   0.0000   0.0000   0.3710
   6.750   1.9331   0.02011   0.01273  -0.2593  0.4685  1.0000  -2.4407   0.0000   0.0000   0.0000   0.3686
   7.000   1.9509   0.02047   0.01319  -0.2576  0.4646  1.0000  -2.4701   0.0000   0.0000   0.0000   0.3660
   7.250   1.9722   0.02079   0.01353  -0.2566  0.4610  1.0000  -2.5033   0.0000   0.0000   0.0000   0.3636
   7.500   1.9983   0.02110   0.01379  -0.2566  0.4580  1.0000  -2.5413   0.0000   0.0000   0.0000   0.3614
   7.750   2.0148   0.02150   0.01430  -0.2547  0.4542  1.0000  -2.5696   0.0000   0.0000   0.0000   0.3589
   8.000   2.0340   0.02185   0.01470  -0.2534  0.4505  1.0000  -2.6008   0.0000   0.0000   0.0000   0.3565
   8.250   2.0591   0.02218   0.01499  -0.2532  0.4475  1.0000  -2.6380   0.0000   0.0000   0.0000   0.3543
   8.500   2.0736   0.02262   0.01554  -0.2510  0.4441  1.0000  -2.6644   0.0000   0.0000   0.0000   0.3519
   8.750   2.0900   0.02303   0.01602  -0.2492  0.4406  1.0000  -2.6926   0.0000   0.0000   0.0000   0.3495
   9.000   2.1130   0.02339   0.01637  -0.2486  0.4377  1.0000  -2.7278   0.0000   0.0000   0.0000   0.3474
   9.250   2.1290   0.02386   0.01692  -0.2468  0.4344  1.0000  -2.7557   0.0000   0.0000   0.0000   0.3451
   9.500   2.1406   0.02437   0.01752  -0.2442  0.4307  1.0000  -2.7792   0.0000   0.0000   0.0000   0.3427
   9.750   2.1612   0.02475   0.01791  -0.2432  0.4274  1.0000  -2.8121   0.0000   0.0000   0.0000   0.3406
  10.000   2.1778   0.02528   0.01851  -0.2416  0.4243  1.0000  -2.8585   0.0000   0.0000   0.0000   0.3385
  10.250   2.1875   0.02591   0.01926  -0.2388  0.4207  1.0000  -2.9085   0.0000   0.0000   0.0000   0.3361
  10.500   2.2058   0.02637   0.01975  -0.2375  0.4174  1.0000  -2.9722   0.0000   0.0000   0.0000   0.3341
  10.750   2.2173   0.02699   0.02044  -0.2351  0.4135  1.0000  -3.0263   0.0000   0.0000   0.0000   0.3319
  11.000   2.2219   0.02773   0.02128  -0.2315  0.4087  1.0000  -3.0706   0.0000   0.0000   0.0000   0.3295
  11.250   2.2343   0.02831   0.02187  -0.2293  0.4041  1.0000  -3.1270   0.0000   0.0000   0.0000   0.3273
  11.500   2.2326   0.02935   0.02306  -0.2250  0.3990  1.0000  -3.1709   0.0000   0.0000   0.0000   0.3249
  11.750   2.2469   0.02996   0.02366  -0.2233  0.3946  1.0000  -3.2450   0.0000   0.0000   0.0000   0.3229
  12.000   2.2448   0.03126   0.02514  -0.2193  0.3900  1.0000  -3.2923   0.0000   0.0000   0.0000   0.3206
  12.250   2.2566   0.03207   0.02599  -0.2174  0.3862  1.0000  -3.3678   0.0000   0.0000   0.0000   0.3186
  12.500   2.2596   0.03334   0.02738  -0.2144  0.3819  1.0000  -3.4262   0.0000   0.0000   0.0000   0.3166
  12.750   2.2630   0.03461   0.02875  -0.2116  0.3772  1.0000  -3.4858   0.0000   0.0000   0.0000   0.3146
  13.000   2.2682   0.03590   0.03011  -0.2092  0.3728  1.0000  -3.5522   0.0000   0.0000   0.0000   0.3127
  13.250   2.2673   0.03760   0.03194  -0.2062  0.3680  1.0000  -3.6084   0.0000   0.0000   0.0000   0.3107
  13.500   2.2744   0.03889   0.03328  -0.2043  0.3638  1.0000  -3.6825   0.0000   0.0000   0.0000   0.3090
  13.750   2.2693   0.04109   0.03563  -0.2013  0.3587  1.0000  -3.7296   0.0000   0.0000   0.0000   0.3072
  14.000   2.2740   0.04267   0.03725  -0.1993  0.3539  1.0000  -3.7991   0.0000   0.0000   0.0000   0.3055
  14.250   2.2662   0.04537   0.04012  -0.1966  0.3483  1.0000  -3.8482   0.0000   0.0000   0.0000   0.3039
  14.500   2.2658   0.04757   0.04239  -0.1946  0.3431  1.0000  -3.9254   0.0000   0.0000   0.0000   0.3024
  14.750   2.2602   0.05037   0.04532  -0.1926  0.3375  1.0000  -3.9880   0.0000   0.0000   0.0000   0.3009
  15.000   2.2556   0.05323   0.04828  -0.1907  0.3319  1.0000  -4.0533   0.0000   0.0000   0.0000   0.2996
  15.250   2.2533   0.05592   0.05104  -0.1892  0.3263  1.0000  -4.1256   0.0000   0.0000   0.0000   0.2983
  15.500   2.2425   0.05972   0.05500  -0.1875  0.3201  1.0000  -4.1727   0.0000   0.0000   0.0000   0.2972
  15.750   2.2375   0.06294   0.05829  -0.1862  0.3141  1.0000  -4.2400   0.0000   0.0000   0.0000   0.2961
  16.000   2.2291   0.06668   0.06212  -0.1850  0.3076  1.0000  -4.3004   0.0000   0.0000   0.0000   0.2951
  16.250   2.2174   0.07099   0.06657  -0.1839  0.3007  1.0000  -4.3493   0.0000   0.0000   0.0000   0.2943
  16.500   2.2076   0.07515   0.07082  -0.1830  0.2938  1.0000  -4.4044   0.0000   0.0000   0.0000   0.2935
  16.750   2.1975   0.07941   0.07515  -0.1823  0.2865  1.0000  -4.4584   0.0000   0.0000   0.0000   0.2928
  17.000   2.1857   0.08401   0.07982  -0.1818  0.2787  1.0000  -4.5146   0.0000   0.0000   0.0000   0.2922
  17.250   2.1707   0.08918   0.08509  -0.1815  0.2703  1.0000  -4.5826   0.0000   0.0000   0.0000   0.2919
  17.500   2.1560   0.09440   0.09039  -0.1814  0.2615  1.0000  -4.6504   0.0000   0.0000   0.0000   0.2916
  17.750   2.1415   0.09961   0.09567  -0.1814  0.2523  1.0000  -4.7209   0.0000   0.0000   0.0000   0.2914
  18.000   2.1270   0.10490   0.10100  -0.1817  0.2427  1.0000  -4.7914   0.0000   0.0000   0.0000   0.2913
  18.250   2.1110   0.11046   0.10662  -0.1823  0.2323  1.0000  -4.8507   0.0000   0.0000   0.0000   0.2914
  18.500   2.0953   0.11602   0.11222  -0.1831  0.2212  1.0000  -4.9092   0.0000   0.0000   0.0000   0.2917
  18.750   2.0797   0.12156   0.11776  -0.1840  0.2098  1.0000  -4.9650   0.0000   0.0000   0.0000   0.2920
  19.000   2.0640   0.12712   0.12330  -0.1852  0.1980  1.0000  -5.0177   0.0000   0.0000   0.0000   0.2924
  19.250   2.0489   0.13261   0.12879  -0.1866  0.1859  1.0000  -5.0709   0.0000   0.0000   0.0000   0.2930
  19.500   2.0342   0.13802   0.13415  -0.1882  0.1745  1.0000  -5.1234   0.0000   0.0000   0.0000   0.2936
  19.750   2.0213   0.14315   0.13926  -0.1898  0.1637  1.0000  -5.1849   0.0000   0.0000   0.0000   0.2943
  20.000   2.0100   0.14802   0.14411  -0.1916  0.1539  1.0000  -5.2535   0.0000   0.0000   0.0000   0.2949
  20.250   2.0003   0.15260   0.14866  -0.1933  0.1451  1.0000  -5.3319   0.0000   0.0000   0.0000   0.2954
  20.500   1.9923   0.15690   0.15294  -0.1951  0.1371  1.0000  -5.4201   0.0000   0.0000   0.0000   0.2959
  20.750   1.9858   0.16099   0.15703  -0.1969  0.1297  1.0000  -5.5166   0.0000   0.0000   0.0000   0.2963
  21.000   1.9802   0.16491   0.16095  -0.1987  0.1228  1.0000  -5.6191   0.0000   0.0000   0.0000   0.2967
  21.250   1.9756   0.16865   0.16471  -0.2005  0.1165  1.0000  -5.7276   0.0000   0.0000   0.0000   0.2970
  21.500   1.9716   0.17227   0.16834  -0.2023  0.1106  1.0000  -5.8409   0.0000   0.0000   0.0000   0.2973
  21.750   1.9679   0.17582   0.17189  -0.2042  0.1050  1.0000  -5.9551   0.0000   0.0000   0.0000   0.2977
  22.000   1.9644   0.17931   0.17536  -0.2062  0.0999  1.0000  -6.0713   0.0000   0.0000   0.0000   0.2980
  22.250   1.9618   0.18274   0.17884  -0.2081  0.0946  1.0000  -6.1938   0.0000   0.0000   0.0000   0.2983
  22.500   1.9594   0.18607   0.18221  -0.2102  0.0897  1.0000  -6.3170   0.0000   0.0000   0.0000   0.2986
  22.750   1.9571   0.18936   0.18553  -0.2122  0.0850  1.0000  -6.4415   0.0000   0.0000   0.0000   0.2989
  23.000   1.9549   0.19258   0.18877  -0.2143  0.0807  1.0000  -6.5666   0.0000   0.0000   0.0000   0.2992
  23.250   1.9523   0.19592   0.19210  -0.2165  0.0765  1.0000  -6.6895   0.0000   0.0000   0.0000   0.2996
  23.500   1.9504   0.19917   0.19541  -0.2188  0.0724  1.0000  -6.8159   0.0000   0.0000   0.0000   0.3000
  23.750   1.9486   0.20232   0.19861  -0.2210  0.0684  1.0000  -6.9438   0.0000   0.0000   0.0000   0.3004
  24.000   1.9467   0.20552   0.20184  -0.2233  0.0648  1.0000  -7.0699   0.0000   0.0000   0.0000   0.3008
  24.250   1.9448   0.20865   0.20498  -0.2257  0.0614  1.0000  -7.1979   0.0000   0.0000   0.0000   0.3012
  24.500   1.9428   0.21186   0.20824  -0.2281  0.0580  1.0000  -7.3290   0.0000   0.0000   0.0000   0.3017
  24.750   1.9412   0.21495   0.21139  -0.2306  0.0548  1.0000  -7.4652   0.0000   0.0000   0.0000   0.3021
  25.000   1.9397   0.21797   0.21445  -0.2330  0.0519  1.0000  -7.6038   0.0000   0.0000   0.0000   0.3025


