xflr5 v6.59

 Calculated polar for: TKV2008

 1 1 Reynolds number fixed          Mach number fixed         

 xtrf =   1.000 (top)        1.000 (bottom)
 Mach =   0.000     Re =     0.410 e 6     Ncrit =   9.000

  alpha     CL        CD       CDp       Cm    Top Xtr Bot Xtr   Cpmin    Chinge    XCp    
 ------- -------- --------- --------- -------- ------- ------- -------- --------- ---------
 -24.000  -0.4404   0.25986   0.25684  -0.0018  1.0000  0.0088  -1.3832   0.0000   0.0000   0.0000   0.2045
 -23.750  -0.4333   0.25775   0.25474  -0.0032  1.0000  0.0089  -1.3521   0.0000   0.0000   0.0000   0.2014
 -23.500  -0.4260   0.25568   0.25268  -0.0046  1.0000  0.0089  -1.3280   0.0000   0.0000   0.0000   0.1980
 -23.250  -0.4187   0.25358   0.25059  -0.0059  1.0000  0.0090  -1.3150   0.0000   0.0000   0.0000   0.1945
 -23.000  -0.4114   0.25148   0.24849  -0.0073  1.0000  0.0091  -1.3062   0.0000   0.0000   0.0000   0.1908
 -22.750  -0.4040   0.24934   0.24636  -0.0087  1.0000  0.0092  -1.2996   0.0000   0.0000   0.0000   0.1871
 -22.500  -0.3966   0.24718   0.24421  -0.0100  1.0000  0.0093  -1.2940   0.0000   0.0000   0.0000   0.1832
 -22.250  -0.3892   0.24500   0.24204  -0.0113  1.0000  0.0094  -1.2889   0.0000   0.0000   0.0000   0.1793
 -22.000  -0.3818   0.24282   0.23986  -0.0126  1.0000  0.0095  -1.2840   0.0000   0.0000   0.0000   0.1752
 -21.750  -0.3744   0.24060   0.23765  -0.0138  1.0000  0.0097  -1.2793   0.0000   0.0000   0.0000   0.1711
 -19.000  -0.2956   0.21574   0.21292  -0.0258  1.0000  0.0104  -1.3204   0.0000   0.0000   0.0000   0.1177
 -18.750  -0.2888   0.21358   0.21077  -0.0265  1.0000  0.0105  -1.2943   0.0000   0.0000   0.0000   0.1127
 -18.500  -0.2821   0.21144   0.20865  -0.0273  1.0000  0.0106  -1.2751   0.0000   0.0000   0.0000   0.1075
 -18.250  -0.2754   0.20930   0.20654  -0.0281  1.0000  0.0107  -1.2602   0.0000   0.0000   0.0000   0.1021
 -18.000  -0.2688   0.20715   0.20440  -0.0288  1.0000  0.0108  -1.2479   0.0000   0.0000   0.0000   0.0966
 -17.750  -0.2624   0.20501   0.20228  -0.0295  1.0000  0.0109  -1.2373   0.0000   0.0000   0.0000   0.0910
 -17.500  -0.2561   0.20286   0.20014  -0.0301  1.0000  0.0110  -1.2279   0.0000   0.0000   0.0000   0.0855
 -17.250  -0.2499   0.20071   0.19802  -0.0307  1.0000  0.0111  -1.2192   0.0000   0.0000   0.0000   0.0799
 -17.000  -0.2439   0.19857   0.19589  -0.0312  1.0000  0.0113  -1.2134   0.0000   0.0000   0.0000   0.0745
 -16.750  -0.2382   0.19644   0.19378  -0.0316  1.0000  0.0114  -1.2162   0.0000   0.0000   0.0000   0.0692
 -16.500  -0.2326   0.19431   0.19168  -0.0320  1.0000  0.0116  -1.2208   0.0000   0.0000   0.0000   0.0641
 -16.250  -0.2274   0.19220   0.18959  -0.0323  1.0000  0.0117  -1.2286   0.0000   0.0000   0.0000   0.0593
 -16.000  -0.2225   0.19010   0.18752  -0.0326  1.0000  0.0118  -1.2401   0.0000   0.0000   0.0000   0.0549
 -15.750  -0.2058   0.18667   0.18408  -0.0363  0.9989  0.0119  -1.2531   0.0000   0.0000   0.0000   0.0209
 -15.000  -0.1469   0.17541   0.17280  -0.0502  0.9936  0.0121  -1.2637   0.0000   0.0000   0.0000  -0.1654
 -14.750  -0.1269   0.17184   0.16923  -0.0546  0.9919  0.0122  -1.2214   0.0000   0.0000   0.0000  -0.2659
 -14.500  -0.1067   0.16826   0.16564  -0.0592  0.9905  0.0123  -1.1914   0.0000   0.0000   0.0000  -0.4059
 -14.250  -0.0884   0.16468   0.16206  -0.0631  0.9879  0.0125  -1.1695   0.0000   0.0000   0.0000  -0.5858
 -14.000  -0.0687   0.16105   0.15842  -0.0675  0.9862  0.0127  -1.1505   0.0000   0.0000   0.0000  -0.8889
 -13.750  -0.0483   0.15737   0.15473  -0.0721  0.9850  0.0130  -1.1339   0.0000   0.0000   0.0000  -1.4657
 -13.500  -0.0316   0.15378   0.15115  -0.0755  0.9816  0.0132  -1.1288   0.0000   0.0000   0.0000  -2.4766
 -12.500   0.0455   0.13866   0.13601  -0.0925  0.9724  0.0138  -1.1903   0.0000   0.0000   0.0000   2.5182
 -12.250   0.0601   0.13540   0.13275  -0.0948  0.9668  0.0139  -1.1522   0.0000   0.0000   0.0000   2.0020
 -12.000   0.0743   0.13223   0.12959  -0.0971  0.9603  0.0141  -1.1282   0.0000   0.0000   0.0000   1.6967
 -11.750   0.0813   0.12967   0.12705  -0.0972  0.9471  0.0142  -1.1169   0.0000   0.0000   0.0000   1.5709
 -11.500   0.0858   0.12737   0.12477  -0.0966  0.9254  0.0144  -1.1110   0.0000   0.0000   0.0000   1.4915
 -11.250   0.1049   0.12370   0.12107  -0.1003  0.9110  0.0147  -1.0989   0.0000   0.0000   0.0000   1.3002
 -11.000   0.1340   0.11910   0.11641  -0.1070  0.9006  0.0151  -1.0890   0.0000   0.0000   0.0000   1.1229
 -10.750   0.1723   0.11366   0.11089  -0.1168  0.8913  0.0154  -1.1103   0.0000   0.0000   0.0000   0.9870
 -10.500   0.2208   0.10754   0.10464  -0.1297  0.8802  0.0155  -1.1057   0.0000   0.0000   0.0000   0.8846
 -10.250   0.2820   0.10126   0.09817  -0.1453  0.8633  0.0160  -1.0269   0.0000   0.0000   0.0000   0.8041
 -10.000   0.3326   0.09616   0.09276  -0.1581  0.8317  0.0166  -1.0012   0.0000   0.0000   0.0000   0.7592
  -9.750   0.3510   0.09357   0.08990  -0.1614  0.7984  0.0171  -1.0184   0.0000   0.0000   0.0000   0.7416
  -9.500   0.3592   0.09158   0.08774  -0.1626  0.7751  0.0173  -1.0969   0.0000   0.0000   0.0000   0.7329
  -9.250   0.3677   0.08961   0.08566  -0.1628  0.7571  0.0174  -1.0890   0.0000   0.0000   0.0000   0.7215
  -9.000   0.3770   0.08778   0.08374  -0.1628  0.7425  0.0175  -1.0451   0.0000   0.0000   0.0000   0.7092
  -8.750   0.3858   0.08601   0.08189  -0.1629  0.7301  0.0178  -1.0212   0.0000   0.0000   0.0000   0.6983
  -8.500   0.3945   0.08422   0.08004  -0.1631  0.7192  0.0180  -1.0082   0.0000   0.0000   0.0000   0.6883
  -8.250   0.4031   0.08239   0.07816  -0.1634  0.7095  0.0184  -1.0141   0.0000   0.0000   0.0000   0.6789
  -8.000   0.4116   0.08055   0.07625  -0.1637  0.7008  0.0188  -1.0212   0.0000   0.0000   0.0000   0.6701
  -7.750   0.4189   0.07866   0.07434  -0.1641  0.6925  0.0191  -1.0449   0.0000   0.0000   0.0000   0.6630
  -7.500   0.4245   0.07677   0.07243  -0.1648  0.6852  0.0192  -1.1164   0.0000   0.0000   0.0000   0.6584
  -7.250   0.4352   0.07494   0.07054  -0.1645  0.6784  0.0194  -1.0441   0.0000   0.0000   0.0000   0.6470
  -7.000   0.4441   0.07326   0.06886  -0.1644  0.6716  0.0197  -1.0515   0.0000   0.0000   0.0000   0.6382
  -6.750   0.4527   0.07157   0.06713  -0.1645  0.6658  0.0201  -1.0596   0.0000   0.0000   0.0000   0.6303
  -6.500   0.4598   0.06986   0.06543  -0.1644  0.6596  0.0206  -1.0662   0.0000   0.0000   0.0000   0.6234
  -6.250   0.4650   0.06810   0.06364  -0.1644  0.6542  0.0211  -1.0705   0.0000   0.0000   0.0000   0.6186
  -6.000   0.4672   0.06639   0.06195  -0.1640  0.6490  0.0213  -1.1116   0.0000   0.0000   0.0000   0.6152
  -5.750   0.4755   0.06484   0.06039  -0.1631  0.6438  0.0215  -1.0835   0.0000   0.0000   0.0000   0.6062
  -5.500   0.4812   0.06346   0.05899  -0.1622  0.6391  0.0219  -1.0908   0.0000   0.0000   0.0000   0.5995
  -5.250   0.4880   0.06190   0.05746  -0.1620  0.6338  0.0224  -1.0978   0.0000   0.0000   0.0000   0.5934
  -5.000   0.4963   0.05961   0.05514  -0.1655  0.6296  0.0233  -1.2005   0.0000   0.0000   0.0000   0.5940
  -4.750   0.5074   0.05809   0.05363  -0.1641  0.6246  0.0236  -1.1121   0.0000   0.0000   0.0000   0.5832
  -4.500   0.5196   0.05644   0.05197  -0.1648  0.6200  0.0242  -1.1227   0.0000   0.0000   0.0000   0.5760
  -4.250   0.5359   0.05435   0.04984  -0.1674  0.6162  0.0251  -1.1334   0.0000   0.0000   0.0000   0.5703
  -4.000   0.5539   0.05166   0.04718  -0.1716  0.6118  0.0256  -1.1537   0.0000   0.0000   0.0000   0.5671
  -3.750   0.5703   0.05001   0.04551  -0.1725  0.6076  0.0262  -1.1573   0.0000   0.0000   0.0000   0.5589
  -3.500   0.6082   0.04606   0.04147  -0.1831  0.6039  0.0278  -1.2138   0.0000   0.0000   0.0000   0.5565
  -3.250   0.6228   0.04477   0.04021  -0.1824  0.5994  0.0282  -1.1903   0.0000   0.0000   0.0000   0.5476
  -3.000   0.6700   0.04063   0.03597  -0.1938  0.5953  0.0303  -1.2149   0.0000   0.0000   0.0000   0.5433
  -1.250   1.0757   0.01586   0.00857  -0.2612  0.5665  0.0323  -1.4753   0.0000   0.0000   0.0000   0.4926
  -1.000   1.1091   0.01518   0.00767  -0.2623  0.5624  0.0322  -1.5039   0.0000   0.0000   0.0000   0.4858
  -0.750   1.1407   0.01480   0.00715  -0.2631  0.5588  0.0335  -1.5323   0.0000   0.0000   0.0000   0.4795
  -0.500   1.1711   0.01456   0.00679  -0.2636  0.5550  0.0356  -1.5597   0.0000   0.0000   0.0000   0.4734
  -0.250   1.2004   0.01431   0.00657  -0.2640  0.5510  0.0376  -1.5877   0.0000   0.0000   0.0000   0.4677
   0.000   1.2303   0.01419   0.00639  -0.2644  0.5473  0.0410  -1.6169   0.0000   0.0000   0.0000   0.4623
   0.500   1.2886   0.01399   0.00622  -0.2651  0.5394  0.0513  -1.6743   0.0000   0.0000   0.0000   0.4521
   0.750   1.3186   0.01393   0.00616  -0.2656  0.5360  0.0665  -1.7039   0.0000   0.0000   0.0000   0.4474
   1.000   1.3495   0.01376   0.00633  -0.2665  0.5325  0.2194  -1.7339   0.0000   0.0000   0.0000   0.4430
   1.250   1.3760   0.01384   0.00645  -0.2663  0.5287  0.2572  -1.7613   0.0000   0.0000   0.0000   0.4386
   1.500   1.4032   0.01394   0.00655  -0.2663  0.5252  0.2895  -1.7900   0.0000   0.0000   0.0000   0.4343
   2.000   1.4587   0.01397   0.00695  -0.2666  0.5177  0.4618  -1.8500   0.0000   0.0000   0.0000   0.4264
   2.250   1.4833   0.01371   0.00730  -0.2660  0.5143  0.8102  -1.8799   0.0000   0.0000   0.0000   0.4225
   2.750   1.5314   0.01387   0.00746  -0.2645  0.5073  1.0000  -1.9381   0.0000   0.0000   0.0000   0.4149
   3.000   1.5573   0.01407   0.00759  -0.2642  0.5038  1.0000  -1.9688   0.0000   0.0000   0.0000   0.4114
   3.250   1.5848   0.01432   0.00772  -0.2642  0.5008  1.0000  -2.0009   0.0000   0.0000   0.0000   0.4080
   3.500   1.6086   0.01449   0.00791  -0.2635  0.4969  1.0000  -2.0299   0.0000   0.0000   0.0000   0.4046
   3.750   1.6336   0.01469   0.00807  -0.2630  0.4933  1.0000  -2.0600   0.0000   0.0000   0.0000   0.4014
   4.000   1.6600   0.01494   0.00823  -0.2629  0.4901  1.0000  -2.0916   0.0000   0.0000   0.0000   0.3982
   4.250   1.6832   0.01514   0.00845  -0.2621  0.4863  1.0000  -2.1202   0.0000   0.0000   0.0000   0.3951
   4.500   1.7073   0.01535   0.00865  -0.2615  0.4827  1.0000  -2.1497   0.0000   0.0000   0.0000   0.3921
   4.750   1.7328   0.01561   0.00883  -0.2612  0.4796  1.0000  -2.1806   0.0000   0.0000   0.0000   0.3892
   5.000   1.7559   0.01584   0.00909  -0.2605  0.4761  1.0000  -2.2092   0.0000   0.0000   0.0000   0.3863
   5.250   1.7789   0.01607   0.00933  -0.2597  0.4725  1.0000  -2.2395   0.0000   0.0000   0.0000   0.3834
   5.500   1.8032   0.01633   0.00955  -0.2592  0.4694  1.0000  -2.2733   0.0000   0.0000   0.0000   0.3807
   5.750   1.8265   0.01661   0.00983  -0.2585  0.4662  1.0000  -2.3060   0.0000   0.0000   0.0000   0.3780
   6.000   1.8477   0.01686   0.01011  -0.2574  0.4627  1.0000  -2.3370   0.0000   0.0000   0.0000   0.3753
   6.250   1.8702   0.01713   0.01037  -0.2566  0.4596  1.0000  -2.3692   0.0000   0.0000   0.0000   0.3727
   6.500   1.8939   0.01744   0.01065  -0.2560  0.4565  1.0000  -2.4025   0.0000   0.0000   0.0000   0.3701
   6.750   1.9119   0.01771   0.01099  -0.2543  0.4528  1.0000  -2.4307   0.0000   0.0000   0.0000   0.3675
   7.000   1.9322   0.01800   0.01129  -0.2531  0.4494  1.0000  -2.4631   0.0000   0.0000   0.0000   0.3649
   7.250   1.9549   0.01834   0.01159  -0.2524  0.4463  1.0000  -2.4978   0.0000   0.0000   0.0000   0.3625
   7.500   1.9712   0.01866   0.01200  -0.2504  0.4425  1.0000  -2.5263   0.0000   0.0000   0.0000   0.3600
   7.750   1.9902   0.01898   0.01234  -0.2490  0.4391  1.0000  -2.5575   0.0000   0.0000   0.0000   0.3575
   8.000   2.0132   0.01935   0.01267  -0.2485  0.4362  1.0000  -2.5927   0.0000   0.0000   0.0000   0.3553
   8.250   2.0286   0.01973   0.01316  -0.2464  0.4327  1.0000  -2.6201   0.0000   0.0000   0.0000   0.3528
   8.500   2.0467   0.02012   0.01358  -0.2449  0.4294  1.0000  -2.6504   0.0000   0.0000   0.0000   0.3505
   8.750   2.0680   0.02051   0.01395  -0.2441  0.4265  1.0000  -2.6840   0.0000   0.0000   0.0000   0.3483
   9.000   2.0834   0.02097   0.01450  -0.2422  0.4231  1.0000  -2.7115   0.0000   0.0000   0.0000   0.3460
   9.250   2.0991   0.02142   0.01502  -0.2403  0.4195  1.0000  -2.7394   0.0000   0.0000   0.0000   0.3437
   9.500   2.1183   0.02186   0.01546  -0.2391  0.4164  1.0000  -2.7709   0.0000   0.0000   0.0000   0.3415
   9.750   2.1338   0.02239   0.01606  -0.2373  0.4131  1.0000  -2.7983   0.0000   0.0000   0.0000   0.3393
  10.000   2.1484   0.02294   0.01669  -0.2354  0.4097  1.0000  -2.8295   0.0000   0.0000   0.0000   0.3371
  10.250   2.1652   0.02345   0.01721  -0.2339  0.4063  1.0000  -2.8846   0.0000   0.0000   0.0000   0.3350
  10.500   2.1760   0.02413   0.01797  -0.2314  0.4022  1.0000  -2.9371   0.0000   0.0000   0.0000   0.3327
  10.750   2.1854   0.02483   0.01875  -0.2288  0.3975  1.0000  -2.9879   0.0000   0.0000   0.0000   0.3305
  11.000   2.1955   0.02560   0.01956  -0.2263  0.3929  1.0000  -3.0400   0.0000   0.0000   0.0000   0.3283
  11.250   2.2024   0.02648   0.02053  -0.2235  0.3880  1.0000  -3.0875   0.0000   0.0000   0.0000   0.3261
  11.500   2.2132   0.02732   0.02140  -0.2214  0.3837  1.0000  -3.1444   0.0000   0.0000   0.0000   0.3241
  11.750   2.2200   0.02835   0.02255  -0.2187  0.3792  1.0000  -3.2033   0.0000   0.0000   0.0000   0.3220
  12.000   2.2310   0.02927   0.02349  -0.2168  0.3754  1.0000  -3.2742   0.0000   0.0000   0.0000   0.3200
  12.250   2.2362   0.03050   0.02484  -0.2142  0.3708  1.0000  -3.3363   0.0000   0.0000   0.0000   0.3180
  12.500   2.2429   0.03172   0.02612  -0.2119  0.3663  1.0000  -3.4016   0.0000   0.0000   0.0000   0.3161
  12.750   2.2487   0.03306   0.02756  -0.2096  0.3618  1.0000  -3.4654   0.0000   0.0000   0.0000   0.3142
  13.000   2.2537   0.03452   0.02909  -0.2074  0.3573  1.0000  -3.5296   0.0000   0.0000   0.0000   0.3124
  13.250   2.2589   0.03604   0.03068  -0.2053  0.3529  1.0000  -3.5987   0.0000   0.0000   0.0000   0.3106
  13.500   2.2608   0.03787   0.03262  -0.2031  0.3477  1.0000  -3.6608   0.0000   0.0000   0.0000   0.3089
  13.750   2.2632   0.03977   0.03460  -0.2011  0.3426  1.0000  -3.7242   0.0000   0.0000   0.0000   0.3072
  14.000   2.2639   0.04190   0.03681  -0.1990  0.3372  1.0000  -3.7840   0.0000   0.0000   0.0000   0.3056
  14.250   2.2643   0.04415   0.03917  -0.1972  0.3319  1.0000  -3.8517   0.0000   0.0000   0.0000   0.3041
  14.500   2.2641   0.04655   0.04162  -0.1954  0.3265  1.0000  -3.9290   0.0000   0.0000   0.0000   0.3027
  14.750   2.2625   0.04920   0.04440  -0.1937  0.3208  1.0000  -4.0025   0.0000   0.0000   0.0000   0.3013
  15.000   2.2603   0.05196   0.04720  -0.1921  0.3154  1.0000  -4.0751   0.0000   0.0000   0.0000   0.2999
  15.250   2.2562   0.05507   0.05043  -0.1907  0.3091  1.0000  -4.1420   0.0000   0.0000   0.0000   0.2987
  15.500   2.2519   0.05828   0.05373  -0.1893  0.3031  1.0000  -4.2114   0.0000   0.0000   0.0000   0.2976
  15.750   2.2457   0.06176   0.05725  -0.1880  0.2970  1.0000  -4.2792   0.0000   0.0000   0.0000   0.2965
  16.000   2.2378   0.06561   0.06123  -0.1869  0.2899  1.0000  -4.3413   0.0000   0.0000   0.0000   0.2956
  16.250   2.2290   0.06966   0.06537  -0.1859  0.2826  1.0000  -4.4004   0.0000   0.0000   0.0000   0.2947
  16.500   2.2184   0.07401   0.06979  -0.1850  0.2751  1.0000  -4.4539   0.0000   0.0000   0.0000   0.2939
  16.750   2.2067   0.07862   0.07446  -0.1843  0.2672  1.0000  -4.5030   0.0000   0.0000   0.0000   0.2933
  17.000   2.1934   0.08350   0.07940  -0.1837  0.2589  1.0000  -4.5687   0.0000   0.0000   0.0000   0.2927
  17.250   2.1794   0.08859   0.08455  -0.1833  0.2500  1.0000  -4.6427   0.0000   0.0000   0.0000   0.2923
  17.500   2.1641   0.09394   0.08996  -0.1832  0.2403  1.0000  -4.7138   0.0000   0.0000   0.0000   0.2921
  17.750   2.1476   0.09952   0.09559  -0.1832  0.2297  1.0000  -4.7770   0.0000   0.0000   0.0000   0.2919
  18.000   2.1297   0.10536   0.10145  -0.1835  0.2186  1.0000  -4.8297   0.0000   0.0000   0.0000   0.2920
  18.250   2.1106   0.11141   0.10749  -0.1841  0.2076  1.0000  -4.8723   0.0000   0.0000   0.0000   0.2922
  18.500   2.0936   0.11719   0.11329  -0.1848  0.1953  1.0000  -4.9238   0.0000   0.0000   0.0000   0.2925
  18.750   2.0754   0.12317   0.11927  -0.1859  0.1832  1.0000  -4.9642   0.0000   0.0000   0.0000   0.2930
  19.000   2.0583   0.12900   0.12507  -0.1872  0.1717  1.0000  -5.0080   0.0000   0.0000   0.0000   0.2936
  19.250   2.0428   0.13457   0.13062  -0.1886  0.1609  1.0000  -5.0578   0.0000   0.0000   0.0000   0.2942
  19.500   2.0288   0.13992   0.13595  -0.1901  0.1513  1.0000  -5.1138   0.0000   0.0000   0.0000   0.2948
  20.000   2.0069   0.14961   0.14561  -0.1934  0.1347  1.0000  -5.2585   0.0000   0.0000   0.0000   0.2959
  20.250   1.9992   0.15393   0.14994  -0.1951  0.1271  1.0000  -5.3501   0.0000   0.0000   0.0000   0.2963
  20.750   1.9861   0.16217   0.15820  -0.1985  0.1140  1.0000  -5.5459   0.0000   0.0000   0.0000   0.2971
  21.000   1.9816   0.16596   0.16201  -0.2003  0.1079  1.0000  -5.6565   0.0000   0.0000   0.0000   0.2974
  21.250   1.9774   0.16966   0.16574  -0.2021  0.1023  1.0000  -5.7696   0.0000   0.0000   0.0000   0.2977
  21.500   1.9737   0.17326   0.16936  -0.2039  0.0970  1.0000  -5.8857   0.0000   0.0000   0.0000   0.2980
  21.750   1.9700   0.17688   0.17300  -0.2058  0.0919  1.0000  -6.0014   0.0000   0.0000   0.0000   0.2984
  22.000   1.9664   0.18045   0.17658  -0.2078  0.0870  1.0000  -6.1179   0.0000   0.0000   0.0000   0.2987
  22.250   1.9632   0.18395   0.18008  -0.2098  0.0824  1.0000  -6.2368   0.0000   0.0000   0.0000   0.2991
  22.500   1.9610   0.18726   0.18345  -0.2118  0.0776  1.0000  -6.3640   0.0000   0.0000   0.0000   0.2994
  22.750   1.9587   0.19058   0.18679  -0.2139  0.0733  1.0000  -6.4895   0.0000   0.0000   0.0000   0.2997
  23.000   1.9566   0.19382   0.19007  -0.2160  0.0693  1.0000  -6.6171   0.0000   0.0000   0.0000   0.3000
  23.250   1.9541   0.19719   0.19345  -0.2182  0.0655  1.0000  -6.7406   0.0000   0.0000   0.0000   0.3004
  23.500   1.9514   0.20053   0.19680  -0.2205  0.0620  1.0000  -6.8626   0.0000   0.0000   0.0000   0.3008
  23.750   1.9503   0.20359   0.19991  -0.2226  0.0583  1.0000  -6.9989   0.0000   0.0000   0.0000   0.3011
  24.000   1.9487   0.20671   0.20308  -0.2249  0.0550  1.0000  -7.1326   0.0000   0.0000   0.0000   0.3015
  24.250   1.9471   0.20983   0.20623  -0.2272  0.0520  1.0000  -7.2717   0.0000   0.0000   0.0000   0.3018
  24.500   1.9447   0.21305   0.20947  -0.2296  0.0493  1.0000  -7.4036   0.0000   0.0000   0.0000   0.3023
  24.750   1.9441   0.21594   0.21242  -0.2319  0.0465  1.0000  -7.5527   0.0000   0.0000   0.0000   0.3026
  25.000   1.9432   0.21890   0.21544  -0.2342  0.0440  1.0000  -7.6981   0.0000   0.0000   0.0000   0.3029


