xflr5 v6.59

 Calculated polar for: TKV2008

 1 1 Reynolds number fixed          Mach number fixed         

 xtrf =   1.000 (top)        1.000 (bottom)
 Mach =   0.000     Re =     0.230 e 6     Ncrit =   9.000

  alpha     CL        CD       CDp       Cm    Top Xtr Bot Xtr   Cpmin    Chinge    XCp    
 ------- -------- --------- --------- -------- ------- ------- -------- --------- ---------
 -25.000  -0.4640   0.26865   0.26457   0.0021  1.0000  0.0121  -1.3352   0.0000   0.0000   0.0000   0.2128
 -24.750  -0.4568   0.26658   0.26251   0.0006  1.0000  0.0123  -1.3185   0.0000   0.0000   0.0000   0.2096
 -24.500  -0.4494   0.26451   0.26045  -0.0009  1.0000  0.0124  -1.3077   0.0000   0.0000   0.0000   0.2063
 -24.250  -0.4421   0.26241   0.25836  -0.0024  1.0000  0.0125  -1.2985   0.0000   0.0000   0.0000   0.2028
 -24.000  -0.4347   0.26029   0.25625  -0.0039  1.0000  0.0127  -1.2902   0.0000   0.0000   0.0000   0.1993
 -23.750  -0.4273   0.25816   0.25412  -0.0053  1.0000  0.0128  -1.2821   0.0000   0.0000   0.0000   0.1957
 -23.500  -0.4199   0.25600   0.25198  -0.0067  1.0000  0.0130  -1.2741   0.0000   0.0000   0.0000   0.1920
 -23.250  -0.4125   0.25384   0.24982  -0.0081  1.0000  0.0131  -1.2721   0.0000   0.0000   0.0000   0.1882
 -23.000  -0.4051   0.25166   0.24765  -0.0095  1.0000  0.0132  -1.2722   0.0000   0.0000   0.0000   0.1843
 -22.750  -0.3976   0.24947   0.24547  -0.0109  1.0000  0.0134  -1.2729   0.0000   0.0000   0.0000   0.1803
 -22.500  -0.3902   0.24725   0.24326  -0.0122  1.0000  0.0135  -1.2744   0.0000   0.0000   0.0000   0.1762
 -22.250  -0.3828   0.24507   0.24109  -0.0136  1.0000  0.0136  -1.2775   0.0000   0.0000   0.0000   0.1719
 -21.250  -0.3533   0.23615   0.23222  -0.0186  1.0000  0.0138  -1.2883   0.0000   0.0000   0.0000   0.1536
 -21.000  -0.3461   0.23397   0.23005  -0.0197  1.0000  0.0138  -1.2667   0.0000   0.0000   0.0000   0.1492
 -20.750  -0.3388   0.23180   0.22790  -0.0208  1.0000  0.0140  -1.2497   0.0000   0.0000   0.0000   0.1445
 -20.500  -0.3316   0.22965   0.22577  -0.0219  1.0000  0.0141  -1.2421   0.0000   0.0000   0.0000   0.1396
 -20.250  -0.3243   0.22749   0.22363  -0.0230  1.0000  0.0142  -1.2368   0.0000   0.0000   0.0000   0.1345
 -20.000  -0.3171   0.22531   0.22146  -0.0240  1.0000  0.0144  -1.2327   0.0000   0.0000   0.0000   0.1293
 -19.750  -0.3100   0.22312   0.21929  -0.0251  1.0000  0.0145  -1.2295   0.0000   0.0000   0.0000   0.1240
 -19.500  -0.3029   0.22093   0.21711  -0.0260  1.0000  0.0147  -1.2270   0.0000   0.0000   0.0000   0.1185
 -19.250  -0.2958   0.21871   0.21491  -0.0270  1.0000  0.0149  -1.2251   0.0000   0.0000   0.0000   0.1129
 -17.750  -0.2556   0.20549   0.20181  -0.0321  1.0000  0.0155  -1.2582   0.0000   0.0000   0.0000   0.0758
 -17.500  -0.2492   0.20323   0.19958  -0.0326  1.0000  0.0156  -1.2304   0.0000   0.0000   0.0000   0.0702
 -17.250  -0.2430   0.20109   0.19747  -0.0331  1.0000  0.0157  -1.2167   0.0000   0.0000   0.0000   0.0643
 -17.000  -0.2369   0.19898   0.19538  -0.0336  1.0000  0.0158  -1.2085   0.0000   0.0000   0.0000   0.0583
 -16.750  -0.2310   0.19689   0.19332  -0.0341  1.0000  0.0160  -1.2033   0.0000   0.0000   0.0000   0.0523
 -16.500  -0.2253   0.19481   0.19127  -0.0345  1.0000  0.0162  -1.2003   0.0000   0.0000   0.0000   0.0464
 -16.250  -0.2198   0.19274   0.18923  -0.0349  1.0000  0.0164  -1.1989   0.0000   0.0000   0.0000   0.0407
 -16.000  -0.2147   0.19069   0.18721  -0.0351  1.0000  0.0165  -1.1988   0.0000   0.0000   0.0000   0.0353
 -15.750  -0.2099   0.18866   0.18522  -0.0353  1.0000  0.0167  -1.2003   0.0000   0.0000   0.0000   0.0305
 -15.500  -0.2055   0.18670   0.18329  -0.0354  1.0000  0.0169  -1.2040   0.0000   0.0000   0.0000   0.0263
 -15.250  -0.2017   0.18477   0.18140  -0.0354  1.0000  0.0171  -1.2110   0.0000   0.0000   0.0000   0.0232
 -15.000  -0.1986   0.18295   0.17962  -0.0352  1.0000  0.0172  -1.2225   0.0000   0.0000   0.0000   0.0216
 -14.250  -0.1617   0.17446   0.17119  -0.0426  0.9966  0.0175  -1.2047   0.0000   0.0000   0.0000  -0.0748
 -14.000  -0.1400   0.17062   0.16734  -0.0475  0.9938  0.0178  -1.1729   0.0000   0.0000   0.0000  -0.1600
 -13.750  -0.1179   0.16686   0.16358  -0.0526  0.9914  0.0182  -1.1504   0.0000   0.0000   0.0000  -0.2801
 -13.500  -0.0968   0.16298   0.15969  -0.0573  0.9882  0.0185  -1.1370   0.0000   0.0000   0.0000  -0.4452
 -13.000   0.0266   0.15155   0.14832  -0.0811  0.9682  0.0194  -1.0190   0.0000   0.0000   0.0000   3.6402
 -12.750   0.0434   0.14789   0.14465  -0.0847  0.9659  0.0197  -1.0009   0.0000   0.0000   0.0000   2.4124
 -12.500   0.0573   0.14439   0.14116  -0.0874  0.9600  0.0200  -0.9926   0.0000   0.0000   0.0000   1.9332
 -12.250   0.0711   0.14095   0.13771  -0.0900  0.9532  0.0203  -0.9889   0.0000   0.0000   0.0000   1.6429
 -12.000   0.0845   0.13749   0.13425  -0.0925  0.9453  0.0207  -0.9904   0.0000   0.0000   0.0000   1.4517
 -10.750   0.1035   0.12294   0.11963  -0.0980  0.9142  0.0214  -1.1016   0.0000   0.0000   0.0000   1.2875
 -10.500   0.1243   0.11925   0.11593  -0.1018  0.9039  0.0219  -1.0646   0.0000   0.0000   0.0000   1.1439
 -10.250   0.1496   0.11519   0.11181  -0.1072  0.8946  0.0226  -1.0429   0.0000   0.0000   0.0000   1.0283
 -10.000   0.1799   0.11076   0.10731  -0.1144  0.8854  0.0232  -1.0680   0.0000   0.0000   0.0000   0.9378
  -9.750   0.2171   0.10580   0.10226  -0.1234  0.8762  0.0235  -1.0663   0.0000   0.0000   0.0000   0.8618
  -9.500   0.2633   0.10058   0.09692  -0.1343  0.8658  0.0242  -1.0161   0.0000   0.0000   0.0000   0.7969
  -9.250   0.3138   0.09530   0.09145  -0.1470  0.8520  0.0251  -1.0043   0.0000   0.0000   0.0000   0.7502
  -9.000   0.3530   0.09103   0.08697  -0.1570  0.8317  0.0256  -1.0356   0.0000   0.0000   0.0000   0.7235
  -8.750   0.3796   0.08794   0.08367  -0.1616  0.8107  0.0261  -0.9916   0.0000   0.0000   0.0000   0.7023
  -8.500   0.3952   0.08574   0.08132  -0.1638  0.7923  0.0268  -1.0028   0.0000   0.0000   0.0000   0.6893
  -8.250   0.4073   0.08375   0.07920  -0.1652  0.7774  0.0274  -1.0112   0.0000   0.0000   0.0000   0.6792
  -7.750   0.4270   0.07999   0.07528  -0.1666  0.7535  0.0282  -1.0276   0.0000   0.0000   0.0000   0.6614
  -7.500   0.4369   0.07823   0.07346  -0.1669  0.7434  0.0288  -1.0367   0.0000   0.0000   0.0000   0.6520
  -7.250   0.4460   0.07650   0.07167  -0.1673  0.7342  0.0295  -1.0445   0.0000   0.0000   0.0000   0.6440
  -7.000   0.4522   0.07491   0.07002  -0.1684  0.7262  0.0302  -1.0477   0.0000   0.0000   0.0000   0.6405
  -6.750   0.4628   0.07301   0.06810  -0.1678  0.7178  0.0307  -1.0587   0.0000   0.0000   0.0000   0.6296
  -6.500   0.4721   0.07135   0.06640  -0.1680  0.7105  0.0317  -1.0671   0.0000   0.0000   0.0000   0.6217
  -6.250   0.4779   0.06978   0.06481  -0.1684  0.7037  0.0326  -1.0718   0.0000   0.0000   0.0000   0.6174
  -6.000   0.4847   0.06808   0.06311  -0.1681  0.6970  0.0330  -1.0789   0.0000   0.0000   0.0000   0.6109
  -5.750   0.4941   0.06645   0.06144  -0.1678  0.6911  0.0337  -1.0887   0.0000   0.0000   0.0000   0.6027
  -5.500   0.4988   0.06512   0.06012  -0.1671  0.6849  0.0346  -1.0942   0.0000   0.0000   0.0000   0.5974
  -5.250   0.5050   0.06359   0.05857  -0.1693  0.6794  0.0354  -1.0959   0.0000   0.0000   0.0000   0.5969
  -5.000   0.5172   0.06177   0.05674  -0.1685  0.6740  0.0360  -1.1088   0.0000   0.0000   0.0000   0.5865
  -4.750   0.5290   0.06011   0.05507  -0.1693  0.6685  0.0371  -1.1184   0.0000   0.0000   0.0000   0.5798
  -4.500   0.5448   0.05797   0.05290  -0.1737  0.6638  0.0383  -1.1254   0.0000   0.0000   0.0000   0.5779
  -4.250   0.5563   0.05637   0.05132  -0.1728  0.6582  0.0392  -1.1373   0.0000   0.0000   0.0000   0.5688
  -4.000   0.5830   0.05369   0.04857  -0.1808  0.6536  0.0413  -1.1496   0.0000   0.0000   0.0000   0.5675
  -3.750   0.5933   0.05226   0.04716  -0.1786  0.6484  0.0420  -1.1629   0.0000   0.0000   0.0000   0.5577
  -3.500   0.6230   0.04953   0.04438  -0.1857  0.6436  0.0447  -1.1791   0.0000   0.0000   0.0000   0.5539
  -3.250   0.6451   0.04775   0.04255  -0.1876  0.6395  0.0471  -1.1969   0.0000   0.0000   0.0000   0.5459
  -3.000   0.6709   0.04549   0.04028  -0.1916  0.6344  0.0493  -1.2140   0.0000   0.0000   0.0000   0.5399
  -2.750   0.7104   0.04261   0.03729  -0.1993  0.6302  0.0526  -1.2380   0.0000   0.0000   0.0000   0.5342
  -2.500   0.7507   0.03981   0.03442  -0.2068  0.6255  0.0565  -1.2626   0.0000   0.0000   0.0000   0.5284
  -2.250   0.7934   0.03712   0.03163  -0.2140  0.6207  0.0611  -1.2906   0.0000   0.0000   0.0000   0.5220
  -1.250   1.0646   0.02090   0.01327  -0.2603  0.6032  0.0508  -1.4599   0.0000   0.0000   0.0000   0.4945
  -1.000   1.1020   0.01976   0.01178  -0.2624  0.5984  0.0495  -1.4895   0.0000   0.0000   0.0000   0.4876
  -0.750   1.1388   0.01895   0.01059  -0.2642  0.5945  0.0490  -1.5198   0.0000   0.0000   0.0000   0.4810
  -0.500   1.1705   0.01854   0.00998  -0.2649  0.5904  0.0512  -1.5480   0.0000   0.0000   0.0000   0.4748
  -0.250   1.1999   0.01819   0.00962  -0.2652  0.5858  0.0539  -1.5757   0.0000   0.0000   0.0000   0.4691
   0.000   1.2320   0.01793   0.00928  -0.2660  0.5822  0.0584  -1.6059   0.0000   0.0000   0.0000   0.4635
   0.250   1.2615   0.01778   0.00916  -0.2665  0.5781  0.0646  -1.6339   0.0000   0.0000   0.0000   0.4583
   0.500   1.2914   0.01765   0.00909  -0.2670  0.5737  0.0767  -1.6625   0.0000   0.0000   0.0000   0.4534
   0.750   1.3268   0.01733   0.00909  -0.2688  0.5701  0.2197  -1.6952   0.0000   0.0000   0.0000   0.4488
   1.000   1.3527   0.01748   0.00932  -0.2685  0.5657  0.2837  -1.7214   0.0000   0.0000   0.0000   0.4442
   1.250   1.3798   0.01758   0.00948  -0.2685  0.5616  0.3306  -1.7495   0.0000   0.0000   0.0000   0.4398
   1.500   1.4104   0.01764   0.00962  -0.2692  0.5583  0.4015  -1.7808   0.0000   0.0000   0.0000   0.4357
   1.750   1.4379   0.01750   0.01009  -0.2694  0.5542  0.6500  -1.8093   0.0000   0.0000   0.0000   0.4316
   2.000   1.4534   0.01723   0.01012  -0.2664  0.5505  1.0000  -1.8315   0.0000   0.0000   0.0000   0.4272
   2.250   1.4828   0.01747   0.01017  -0.2668  0.5471  1.0000  -1.8645   0.0000   0.0000   0.0000   0.4233
   2.500   1.5085   0.01776   0.01039  -0.2665  0.5431  1.0000  -1.8941   0.0000   0.0000   0.0000   0.4196
   2.750   1.5341   0.01801   0.01058  -0.2662  0.5390  1.0000  -1.9239   0.0000   0.0000   0.0000   0.4159
   3.000   1.5630   0.01825   0.01068  -0.2664  0.5358  1.0000  -1.9568   0.0000   0.0000   0.0000   0.4124
   3.250   1.5883   0.01856   0.01096  -0.2661  0.5320  1.0000  -1.9862   0.0000   0.0000   0.0000   0.4090
   3.500   1.6129   0.01885   0.01122  -0.2656  0.5280  1.0000  -2.0152   0.0000   0.0000   0.0000   0.4057
   3.750   1.6410   0.01910   0.01137  -0.2658  0.5248  1.0000  -2.0477   0.0000   0.0000   0.0000   0.4025
   4.000   1.6666   0.01942   0.01166  -0.2655  0.5212  1.0000  -2.0776   0.0000   0.0000   0.0000   0.3994
   4.250   1.6897   0.01973   0.01198  -0.2647  0.5171  1.0000  -2.1054   0.0000   0.0000   0.0000   0.3963
   4.500   1.7170   0.01998   0.01216  -0.2648  0.5138  1.0000  -2.1374   0.0000   0.0000   0.0000   0.3933
   4.750   1.7426   0.02031   0.01245  -0.2645  0.5103  1.0000  -2.1676   0.0000   0.0000   0.0000   0.3904
   5.000   1.7644   0.02064   0.01284  -0.2636  0.5062  1.0000  -2.1961   0.0000   0.0000   0.0000   0.3875
   5.250   1.7908   0.02092   0.01306  -0.2635  0.5029  1.0000  -2.2314   0.0000   0.0000   0.0000   0.3848
   5.500   1.8173   0.02125   0.01336  -0.2634  0.4998  1.0000  -2.2666   0.0000   0.0000   0.0000   0.3821
   5.750   1.8372   0.02163   0.01383  -0.2622  0.4956  1.0000  -2.2954   0.0000   0.0000   0.0000   0.3793
   6.000   1.8624   0.02193   0.01409  -0.2619  0.4923  1.0000  -2.3297   0.0000   0.0000   0.0000   0.3767
   6.250   1.8909   0.02224   0.01434  -0.2622  0.4895  1.0000  -2.3671   0.0000   0.0000   0.0000   0.3743
   6.500   1.9082   0.02270   0.01493  -0.2605  0.4854  1.0000  -2.3933   0.0000   0.0000   0.0000   0.3717
   6.750   1.9317   0.02303   0.01528  -0.2599  0.4820  1.0000  -2.4272   0.0000   0.0000   0.0000   0.3692
   7.000   1.9610   0.02331   0.01548  -0.2605  0.4792  1.0000  -2.4680   0.0000   0.0000   0.0000   0.3669
   7.500   1.9980   0.02417   0.01652  -0.2576  0.4715  1.0000  -2.5277   0.0000   0.0000   0.0000   0.3620
   7.750   2.0268   0.02445   0.01673  -0.2581  0.4686  1.0000  -2.5683   0.0000   0.0000   0.0000   0.3598
   8.000   2.0412   0.02499   0.01742  -0.2559  0.4646  1.0000  -2.5939   0.0000   0.0000   0.0000   0.3573
   8.250   2.0609   0.02539   0.01787  -0.2547  0.4609  1.0000  -2.6253   0.0000   0.0000   0.0000   0.3550
   8.500   2.0897   0.02567   0.01810  -0.2552  0.4580  1.0000  -2.6661   0.0000   0.0000   0.0000   0.3530
   8.750   2.1024   0.02628   0.01886  -0.2527  0.4542  1.0000  -2.6899   0.0000   0.0000   0.0000   0.3506
   9.000   2.1199   0.02678   0.01944  -0.2512  0.4507  1.0000  -2.7187   0.0000   0.0000   0.0000   0.3483
   9.250   2.1471   0.02710   0.01974  -0.2515  0.4478  1.0000  -2.7579   0.0000   0.0000   0.0000   0.3464
   9.500   2.1603   0.02772   0.02049  -0.2492  0.4442  1.0000  -2.7822   0.0000   0.0000   0.0000   0.3441
   9.750   2.1728   0.02827   0.02114  -0.2468  0.4404  1.0000  -2.8148   0.0000   0.0000   0.0000   0.3418
  10.000   2.1998   0.02857   0.02142  -0.2470  0.4373  1.0000  -2.8803   0.0000   0.0000   0.0000   0.3399
  10.250   2.2089   0.02927   0.02226  -0.2441  0.4338  1.0000  -2.9298   0.0000   0.0000   0.0000   0.3375
  10.500   2.2169   0.02996   0.02308  -0.2409  0.4303  1.0000  -2.9780   0.0000   0.0000   0.0000   0.3352
  10.750   2.2419   0.03029   0.02340  -0.2408  0.4271  1.0000  -3.0522   0.0000   0.0000   0.0000   0.3333
  11.000   2.2447   0.03108   0.02432  -0.2368  0.4230  1.0000  -3.0936   0.0000   0.0000   0.0000   0.3309
  11.250   2.2494   0.03171   0.02504  -0.2332  0.4183  1.0000  -3.1418   0.0000   0.0000   0.0000   0.3285
  11.500   2.2589   0.03226   0.02563  -0.2305  0.4135  1.0000  -3.2069   0.0000   0.0000   0.0000   0.3262
  11.750   2.2565   0.03322   0.02672  -0.2260  0.4084  1.0000  -3.2518   0.0000   0.0000   0.0000   0.3238
  12.000   2.2703   0.03376   0.02727  -0.2241  0.4039  1.0000  -3.3310   0.0000   0.0000   0.0000   0.3217
  12.250   2.2630   0.03521   0.02891  -0.2193  0.3993  1.0000  -3.3694   0.0000   0.0000   0.0000   0.3193
  12.500   2.2852   0.03554   0.02922  -0.2188  0.3955  1.0000  -3.4660   0.0000   0.0000   0.0000   0.3175
  12.750   2.2733   0.03742   0.03132  -0.2138  0.3910  1.0000  -3.4954   0.0000   0.0000   0.0000   0.3152
  13.000   2.2824   0.03831   0.03227  -0.2117  0.3865  1.0000  -3.5714   0.0000   0.0000   0.0000   0.3133
  13.250   2.2784   0.04003   0.03412  -0.2081  0.3819  1.0000  -3.6215   0.0000   0.0000   0.0000   0.3113
  13.500   2.2791   0.04154   0.03573  -0.2053  0.3771  1.0000  -3.6818   0.0000   0.0000   0.0000   0.3093
  13.750   2.2798   0.04317   0.03747  -0.2026  0.3725  1.0000  -3.7423   0.0000   0.0000   0.0000   0.3075
  14.000   2.2739   0.04533   0.03977  -0.1996  0.3675  1.0000  -3.7880   0.0000   0.0000   0.0000   0.3057
  14.250   2.2744   0.04715   0.04168  -0.1973  0.3628  1.0000  -3.8596   0.0000   0.0000   0.0000   0.3040
  14.500   2.2664   0.04972   0.04437  -0.1945  0.3573  1.0000  -3.9158   0.0000   0.0000   0.0000   0.3024
  14.750   2.2598   0.05237   0.04715  -0.1921  0.3520  1.0000  -3.9756   0.0000   0.0000   0.0000   0.3009
  15.000   2.2571   0.05475   0.04961  -0.1902  0.3463  1.0000  -4.0472   0.0000   0.0000   0.0000   0.2994
  15.250   2.2409   0.05870   0.05373  -0.1878  0.3404  1.0000  -4.0786   0.0000   0.0000   0.0000   0.2983
  15.500   2.2473   0.06036   0.05541  -0.1867  0.3350  1.0000  -4.1770   0.0000   0.0000   0.0000   0.2968
  15.750   2.2235   0.06551   0.06076  -0.1846  0.3285  1.0000  -4.1852   0.0000   0.0000   0.0000   0.2960
  16.000   2.2129   0.06936   0.06472  -0.1832  0.3222  1.0000  -4.2334   0.0000   0.0000   0.0000   0.2950
  16.250   2.2153   0.07166   0.06705  -0.1823  0.3161  1.0000  -4.3286   0.0000   0.0000   0.0000   0.2938
  16.500   2.1896   0.07772   0.07330  -0.1812  0.3087  1.0000  -4.3303   0.0000   0.0000   0.0000   0.2934
  16.750   2.1742   0.08262   0.07832  -0.1805  0.3015  1.0000  -4.3653   0.0000   0.0000   0.0000   0.2929
  17.000   2.1637   0.08695   0.08274  -0.1800  0.2941  1.0000  -4.4159   0.0000   0.0000   0.0000   0.2923
  17.250   2.1537   0.09128   0.08714  -0.1797  0.2864  1.0000  -4.4778   0.0000   0.0000   0.0000   0.2918
  17.500   2.1439   0.09563   0.09155  -0.1796  0.2783  1.0000  -4.5696   0.0000   0.0000   0.0000   0.2913
  17.750   2.1283   0.10095   0.09696  -0.1798  0.2695  1.0000  -4.6292   0.0000   0.0000   0.0000   0.2912
  18.000   2.1142   0.10609   0.10216  -0.1801  0.2602  1.0000  -4.6952   0.0000   0.0000   0.0000   0.2912
  18.250   2.0987   0.11153   0.10768  -0.1808  0.2504  1.0000  -4.7535   0.0000   0.0000   0.0000   0.2913
  18.500   2.0821   0.11720   0.11343  -0.1817  0.2399  1.0000  -4.8038   0.0000   0.0000   0.0000   0.2917
  18.750   2.0676   0.12258   0.11886  -0.1828  0.2289  1.0000  -4.8638   0.0000   0.0000   0.0000   0.2920
  19.000   2.0561   0.12743   0.12370  -0.1839  0.2177  1.0000  -4.9410   0.0000   0.0000   0.0000   0.2922
  19.250   2.0452   0.13218   0.12843  -0.1851  0.2064  1.0000  -5.0189   0.0000   0.0000   0.0000   0.2925
  19.500   2.0316   0.13743   0.13369  -0.1866  0.1945  1.0000  -5.0772   0.0000   0.0000   0.0000   0.2930
  19.750   2.0209   0.14217   0.13838  -0.1882  0.1831  1.0000  -5.1525   0.0000   0.0000   0.0000   0.2935
  20.000   2.0107   0.14681   0.14298  -0.1898  0.1724  1.0000  -5.2289   0.0000   0.0000   0.0000   0.2940
  20.250   2.0013   0.15132   0.14747  -0.1915  0.1622  1.0000  -5.3083   0.0000   0.0000   0.0000   0.2945
  20.500   1.9936   0.15554   0.15165  -0.1933  0.1529  1.0000  -5.3983   0.0000   0.0000   0.0000   0.2949
  20.750   1.9871   0.15953   0.15560  -0.1950  0.1444  1.0000  -5.4957   0.0000   0.0000   0.0000   0.2953
  21.000   1.9816   0.16336   0.15940  -0.1967  0.1366  1.0000  -5.5989   0.0000   0.0000   0.0000   0.2956
  21.250   1.9770   0.16705   0.16309  -0.1985  0.1293  1.0000  -5.7071   0.0000   0.0000   0.0000   0.2959
  21.500   1.9732   0.17061   0.16665  -0.2003  0.1226  1.0000  -5.8203   0.0000   0.0000   0.0000   0.2962
  21.750   1.9697   0.17408   0.17013  -0.2022  0.1163  1.0000  -5.9365   0.0000   0.0000   0.0000   0.2965
  22.000   1.9670   0.17742   0.17347  -0.2040  0.1103  1.0000  -6.0577   0.0000   0.0000   0.0000   0.2967
  22.250   1.9650   0.18061   0.17667  -0.2059  0.1048  1.0000  -6.1844   0.0000   0.0000   0.0000   0.2969
  22.500   1.9639   0.18360   0.17962  -0.2076  0.0997  1.0000  -6.3190   0.0000   0.0000   0.0000   0.2970
  22.750   1.9618   0.18684   0.18291  -0.2096  0.0946  1.0000  -6.4445   0.0000   0.0000   0.0000   0.2973
  23.000   1.9599   0.19005   0.18618  -0.2117  0.0898  1.0000  -6.5696   0.0000   0.0000   0.0000   0.2976
  23.250   1.9589   0.19302   0.18918  -0.2136  0.0853  1.0000  -6.7041   0.0000   0.0000   0.0000   0.2977
  23.500   1.9584   0.19587   0.19201  -0.2156  0.0812  1.0000  -6.8443   0.0000   0.0000   0.0000   0.2979
  23.750   1.9569   0.19898   0.19515  -0.2178  0.0771  1.0000  -6.9751   0.0000   0.0000   0.0000   0.2982
  24.000   1.9549   0.20214   0.19839  -0.2201  0.0731  1.0000  -7.0994   0.0000   0.0000   0.0000   0.2985
  24.250   1.9537   0.20513   0.20141  -0.2223  0.0694  1.0000  -7.2315   0.0000   0.0000   0.0000   0.2989
  24.500   1.9530   0.20798   0.20426  -0.2245  0.0659  1.0000  -7.3710   0.0000   0.0000   0.0000   0.2991
  24.750   1.9507   0.21118   0.20752  -0.2270  0.0625  1.0000  -7.4989   0.0000   0.0000   0.0000   0.2996
  25.000   1.9483   0.21443   0.21085  -0.2296  0.0592  1.0000  -7.6256   0.0000   0.0000   0.0000   0.3001


