xflr5 v6.59

 Calculated polar for: TKV2008

 1 1 Reynolds number fixed          Mach number fixed         

 xtrf =   1.000 (top)        1.000 (bottom)
 Mach =   0.000     Re =     0.020 e 6     Ncrit =   9.000

  alpha     CL        CD       CDp       Cm    Top Xtr Bot Xtr   Cpmin    Chinge    XCp    
 ------- -------- --------- --------- -------- ------- ------- -------- --------- ---------
 -25.000  -0.4620   0.27613   0.26233  -0.0038  1.0000  0.1021  -1.2496   0.0000   0.0000   0.0000   0.1996
 -24.750  -0.4536   0.27307   0.25929  -0.0052  1.0000  0.1035  -1.2343   0.0000   0.0000   0.0000   0.1961
 -24.500  -0.4458   0.27083   0.25707  -0.0067  1.0000  0.1050  -1.2236   0.0000   0.0000   0.0000   0.1924
 -24.250  -0.4385   0.26904   0.25532  -0.0083  1.0000  0.1066  -1.2199   0.0000   0.0000   0.0000   0.1885
 -24.000  -0.4316   0.26779   0.25409  -0.0099  1.0000  0.1079  -1.2198   0.0000   0.0000   0.0000   0.1844
 -23.750  -0.4254   0.26722   0.25355  -0.0116  1.0000  0.1088  -1.2237   0.0000   0.0000   0.0000   0.1801
 -23.500  -0.4189   0.26604   0.25244  -0.0132  1.0000  0.1095  -1.2250   0.0000   0.0000   0.0000   0.1759
 -23.250  -0.4094   0.26173   0.24815  -0.0144  1.0000  0.1111  -1.2052   0.0000   0.0000   0.0000   0.1719
 -23.000  -0.4013   0.25915   0.24560  -0.0157  1.0000  0.1130  -1.1937   0.0000   0.0000   0.0000   0.1677
 -22.750  -0.3938   0.25726   0.24374  -0.0171  1.0000  0.1148  -1.1868   0.0000   0.0000   0.0000   0.1632
 -22.500  -0.3871   0.25599   0.24251  -0.0186  1.0000  0.1164  -1.1841   0.0000   0.0000   0.0000   0.1585
 -22.250  -0.3811   0.25548   0.24204  -0.0201  1.0000  0.1175  -1.1859   0.0000   0.0000   0.0000   0.1538
 -22.000  -0.3750   0.25445   0.24109  -0.0216  1.0000  0.1182  -1.1877   0.0000   0.0000   0.0000   0.1490
 -21.750  -0.3650   0.24995   0.23661  -0.0225  1.0000  0.1199  -1.1690   0.0000   0.0000   0.0000   0.1441
 -21.500  -0.3569   0.24733   0.23403  -0.0237  1.0000  0.1219  -1.1595   0.0000   0.0000   0.0000   0.1391
 -21.250  -0.3496   0.24541   0.23215  -0.0249  1.0000  0.1239  -1.1551   0.0000   0.0000   0.0000   0.1339
 -21.000  -0.3431   0.24424   0.23103  -0.0262  1.0000  0.1256  -1.1555   0.0000   0.0000   0.0000   0.1286
 -20.750  -0.3377   0.24384   0.23068  -0.0276  1.0000  0.1267  -1.1609   0.0000   0.0000   0.0000   0.1233
 -20.500  -0.3311   0.24208   0.22901  -0.0288  1.0000  0.1276  -1.1594   0.0000   0.0000   0.0000   0.1178
 -20.250  -0.3212   0.23784   0.22480  -0.0296  1.0000  0.1298  -1.1394   0.0000   0.0000   0.0000   0.1118
 -20.000  -0.3134   0.23543   0.22244  -0.0305  1.0000  0.1321  -1.1291   0.0000   0.0000   0.0000   0.1059
 -19.750  -0.3068   0.23388   0.22094  -0.0316  1.0000  0.1344  -1.1250   0.0000   0.0000   0.0000   0.1001
 -19.500  -0.3016   0.23333   0.22045  -0.0328  1.0000  0.1361  -1.1274   0.0000   0.0000   0.0000   0.0944
 -19.250  -0.2978   0.23362   0.22084  -0.0340  1.0000  0.1370  -1.1350   0.0000   0.0000   0.0000   0.0891
 -18.750  -0.1736   0.22169   0.21087  -0.0404  1.0000  0.1492  -0.7992   0.0000   0.0000   0.0000  -0.0306
 -18.500  -0.1692   0.21970   0.20892  -0.0405  1.0000  0.1518  -0.7968   0.0000   0.0000   0.0000  -0.0387
 -18.250  -0.1668   0.21888   0.20813  -0.0408  1.0000  0.1544  -0.8021   0.0000   0.0000   0.0000  -0.0442
 -18.000  -0.1662   0.21884   0.20812  -0.0411  1.0000  0.1564  -0.8138   0.0000   0.0000   0.0000  -0.0471
 -17.750  -0.1671   0.21958   0.20889  -0.0414  1.0000  0.1576  -0.8312   0.0000   0.0000   0.0000  -0.0473
 -17.500  -0.1634   0.21725   0.20664  -0.0415  1.0000  0.1592  -0.8305   0.0000   0.0000   0.0000  -0.0544
 -17.250  -0.1582   0.21441   0.20385  -0.0414  1.0000  0.1620  -0.8224   0.0000   0.0000   0.0000  -0.0636
 -17.000  -0.1560   0.21314   0.20263  -0.0414  1.0000  0.1648  -0.8247   0.0000   0.0000   0.0000  -0.0679
 -16.750  -0.1558   0.21280   0.20234  -0.0415  1.0000  0.1673  -0.8342   0.0000   0.0000   0.0000  -0.0685
 -16.500  -0.1578   0.21340   0.20298  -0.0416  1.0000  0.1688  -0.8508   0.0000   0.0000   0.0000  -0.0651
 -16.250  -0.1548   0.21108   0.20075  -0.0414  1.0000  0.1705  -0.8489   0.0000   0.0000   0.0000  -0.0698
 -16.000  -0.1503   0.20831   0.19805  -0.0411  1.0000  0.1738  -0.8391   0.0000   0.0000   0.0000  -0.0765
 -15.750  -0.1495   0.20722   0.19703  -0.0408  1.0000  0.1771  -0.8415   0.0000   0.0000   0.0000  -0.0762
 -15.500  -0.1514   0.20721   0.19709  -0.0406  1.0000  0.1795  -0.8529   0.0000   0.0000   0.0000  -0.0705
 -15.250  -0.1557   0.20808   0.19803  -0.0405  1.0000  0.1808  -0.8752   0.0000   0.0000   0.0000  -0.0602
 -15.000  -0.1496   0.20390   0.19397  -0.0397  1.0000  0.1839  -0.8606   0.0000   0.0000   0.0000  -0.0672
 -14.750  -0.1488   0.20234   0.19250  -0.0390  1.0000  0.1875  -0.8618   0.0000   0.0000   0.0000  -0.0636
 -14.500  -0.1514   0.20201   0.19225  -0.0383  1.0000  0.1905  -0.8734   0.0000   0.0000   0.0000  -0.0535
 -14.250  -0.1571   0.20269   0.19302  -0.0377  1.0000  0.1923  -0.8934   0.0000   0.0000   0.0000  -0.0382
 -14.000  -0.1565   0.20039   0.19086  -0.0367  1.0000  0.1945  -0.8910   0.0000   0.0000   0.0000  -0.0317
 -13.750  -0.1566   0.19852   0.18910  -0.0353  1.0000  0.1981  -0.8868   0.0000   0.0000   0.0000  -0.0226
 -13.500  -0.1608   0.19811   0.18879  -0.0341  1.0000  0.2014  -0.8944   0.0000   0.0000   0.0000  -0.0071
 -13.250  -0.1683   0.19870   0.18949  -0.0329  1.0000  0.2037  -0.9109   0.0000   0.0000   0.0000   0.0120
 -13.000  -0.1762   0.19918   0.19012  -0.0316  1.0000  0.2050  -0.9270   0.0000   0.0000   0.0000   0.0307
 -12.750  -0.1756   0.19638   0.18743  -0.0298  1.0000  0.2084  -0.9134   0.0000   0.0000   0.0000   0.0411
 -12.500  -0.1806   0.19579   0.18695  -0.0282  1.0000  0.2119  -0.9161   0.0000   0.0000   0.0000   0.0565
 -12.000  -0.1933   0.18401   0.17432  -0.0337  1.0000  0.2163  -1.0658   0.0000   0.0000   0.0000   0.0321
 -11.750  -0.1954   0.18205   0.17252  -0.0319  1.0000  0.2188  -1.0606   0.0000   0.0000   0.0000   0.0442
 -11.500  -0.1985   0.18064   0.17125  -0.0299  1.0000  0.2229  -1.0548   0.0000   0.0000   0.0000   0.0582
 -11.250  -0.2073   0.18094   0.17169  -0.0280  1.0000  0.2264  -1.0626   0.0000   0.0000   0.0000   0.0767
 -11.000  -0.2200   0.18233   0.17325  -0.0261  1.0000  0.2284  -1.0796   0.0000   0.0000   0.0000   0.0963
 -10.750  -0.2227   0.18034   0.17140  -0.0243  1.0000  0.2313  -1.0727   0.0000   0.0000   0.0000   0.1069
 -10.500  -0.2272   0.17928   0.17045  -0.0224  1.0000  0.2357  -1.0688   0.0000   0.0000   0.0000   0.1185
 -10.250  -0.2375   0.17989   0.17118  -0.0207  1.0000  0.2392  -1.0794   0.0000   0.0000   0.0000   0.1321
 -10.000  -0.2513   0.18150   0.17292  -0.0191  1.0000  0.2409  -1.0992   0.0000   0.0000   0.0000   0.1456
  -9.750  -0.2476   0.17788   0.16940  -0.0176  1.0000  0.2461  -1.0829   0.0000   0.0000   0.0000   0.1506
  -9.500  -0.2556   0.17789   0.16952  -0.0161  1.0000  0.2506  -1.0925   0.0000   0.0000   0.0000   0.1602
  -9.250  -0.2690   0.17930   0.17105  -0.0147  1.0000  0.2529  -1.1147   0.0000   0.0000   0.0000   0.1705
  -9.000  -0.2654   0.17594   0.16778  -0.0134  1.0000  0.2583  -1.1000   0.0000   0.0000   0.0000   0.1747
  -8.750  -0.2738   0.17601   0.16794  -0.0120  1.0000  0.2631  -1.1109   0.0000   0.0000   0.0000   0.1825
  -8.500  -0.2829   0.17605   0.16811  -0.0108  1.0000  0.2660  -1.1244   0.0000   0.0000   0.0000   0.1895
  -8.250  -0.2816   0.17361   0.16573  -0.0095  1.0000  0.2725  -1.1147   0.0000   0.0000   0.0000   0.1940
  -8.000  -0.2936   0.17443   0.16665  -0.0082  1.0000  0.2765  -1.1333   0.0000   0.0000   0.0000   0.2012
  -7.750  -0.2919   0.17179   0.16409  -0.0071  1.0000  0.2821  -1.1241   0.0000   0.0000   0.0000   0.2051
  -7.500  -0.3009   0.17183   0.16422  -0.0058  1.0000  0.2877  -1.1355   0.0000   0.0000   0.0000   0.2111
  -7.250  -0.3031   0.17009   0.16257  -0.0047  1.0000  0.2926  -1.1346   0.0000   0.0000   0.0000   0.2154
  -7.000  -0.3096   0.16952   0.16207  -0.0034  1.0000  0.2993  -1.1406   0.0000   0.0000   0.0000   0.2207
  -6.750  -0.3132   0.16807   0.16071  -0.0022  1.0000  0.3045  -1.1421   0.0000   0.0000   0.0000   0.2250
  -6.500  -0.3199   0.16744   0.16016  -0.0009  1.0000  0.3116  -1.1479   0.0000   0.0000   0.0000   0.2301
  -6.250  -0.3217   0.16560   0.15840   0.0003  1.0000  0.3177  -1.1456   0.0000   0.0000   0.0000   0.2341
  -6.000  -0.3324   0.16566   0.15854   0.0018  1.0000  0.3246  -1.1580   0.0000   0.0000   0.0000   0.2395
  -5.750  -0.3309   0.16319   0.15614   0.0029  1.0000  0.3327  -1.1490   0.0000   0.0000   0.0000   0.2430
  -5.250  -0.3460   0.16162   0.15473   0.0059  1.0000  0.3483  -1.1608   0.0000   0.0000   0.0000   0.2527
  -5.000  -0.3466   0.15953   0.15271   0.0072  1.0000  0.3577  -1.1548   0.0000   0.0000   0.0000   0.2566
  -4.750  -0.3520   0.15820   0.15146   0.0087  1.0000  0.3666  -1.1563   0.0000   0.0000   0.0000   0.2611
  -4.500  -0.3694   0.15878   0.15214   0.0111  1.0000  0.3742  -1.1760   0.0000   0.0000   0.0000   0.2672
  -4.250  -0.3721   0.15691   0.15034   0.0127  1.0000  0.3860  -1.1715   0.0000   0.0000   0.0000   0.2716
  -4.000  -0.3764   0.15529   0.14879   0.0144  1.0000  0.3982  -1.1694   0.0000   0.0000   0.0000   0.2762
  -3.750  -0.3825   0.15388   0.14746   0.0163  1.0000  0.4108  -1.1696   0.0000   0.0000   0.0000   0.2809
  -3.500  -0.3797   0.15116   0.14480   0.0178  1.0000  0.4267  -1.1562   0.0000   0.0000   0.0000   0.2851
  -3.250  -0.3817   0.14923   0.14293   0.0197  1.0000  0.4446  -1.1487   0.0000   0.0000   0.0000   0.2901
  -3.000  -0.3923   0.14847   0.14225   0.0219  1.0000  0.4608  -1.1550   0.0000   0.0000   0.0000   0.2949
  -2.750  -0.3899   0.14584   0.13969   0.0239  1.0000  0.4845  -1.1397   0.0000   0.0000   0.0000   0.3006
  -2.250  -0.0713   0.12231   0.11558  -0.0136  1.0000  1.0000  -0.8587   0.0000   0.0000   0.0000   0.0043
  -2.000  -0.0723   0.12143   0.11477  -0.0131  1.0000  1.0000  -0.8613   0.0000   0.0000   0.0000   0.0162
  -1.750  -0.0734   0.12055   0.11394  -0.0126  1.0000  1.0000  -0.8637   0.0000   0.0000   0.0000   0.0276
  -1.500  -0.0744   0.11966   0.11310  -0.0122  1.0000  1.0000  -0.8659   0.0000   0.0000   0.0000   0.0387
  -1.250  -0.0755   0.11876   0.11225  -0.0117  1.0000  1.0000  -0.8679   0.0000   0.0000   0.0000   0.0494
  -1.000  -0.0766   0.11785   0.11139  -0.0112  1.0000  1.0000  -0.8698   0.0000   0.0000   0.0000   0.0598
  -0.750  -0.0776   0.11693   0.11051  -0.0108  1.0000  1.0000  -0.8715   0.0000   0.0000   0.0000   0.0699
  -0.500  -0.0788   0.11599   0.10963  -0.0103  1.0000  1.0000  -0.8729   0.0000   0.0000   0.0000   0.0799
  -0.250  -0.0799   0.11505   0.10873  -0.0098  1.0000  1.0000  -0.8742   0.0000   0.0000   0.0000   0.0896
   0.000  -0.0811   0.11409   0.10783  -0.0094  1.0000  1.0000  -0.8753   0.0000   0.0000   0.0000   0.0991
   0.250  -0.0823   0.11312   0.10690  -0.0089  1.0000  1.0000  -0.8762   0.0000   0.0000   0.0000   0.1085
   0.500  -0.0836   0.11213   0.10596  -0.0084  1.0000  1.0000  -0.8770   0.0000   0.0000   0.0000   0.1178
   0.750  -0.0849   0.11112   0.10500  -0.0079  1.0000  1.0000  -0.8775   0.0000   0.0000   0.0000   0.1269
   1.000  -0.0863   0.11008   0.10401  -0.0074  1.0000  1.0000  -0.8779   0.0000   0.0000   0.0000   0.1360
   1.250  -0.0878   0.10903   0.10300  -0.0069  1.0000  1.0000  -0.8781   0.0000   0.0000   0.0000   0.1450
   1.500  -0.0894   0.10794   0.10197  -0.0063  1.0000  1.0000  -0.8791   0.0000   0.0000   0.0000   0.1539
   1.750  -0.0911   0.10683   0.10090  -0.0058  1.0000  1.0000  -0.8840   0.0000   0.0000   0.0000   0.1628
   2.000  -0.0929   0.10568   0.09980  -0.0052  1.0000  1.0000  -0.8888   0.0000   0.0000   0.0000   0.1717
   2.250  -0.1022   0.10416   0.09835  -0.0028  1.0000  0.9970  -0.8968   0.0000   0.0000   0.0000   0.2031
   2.500  -0.1418   0.10229   0.09661   0.0067  1.0000  0.9840  -0.9228   0.0000   0.0000   0.0000   0.2830
   2.750  -0.1816   0.10029   0.09473   0.0161  1.0000  0.9713  -0.9495   0.0000   0.0000   0.0000   0.3269
   3.000  -0.2225   0.09815   0.09271   0.0255  1.0000  0.9593  -0.9774   0.0000   0.0000   0.0000   0.3547
   3.250  -0.2639   0.09576   0.09046   0.0349  1.0000  0.9481  -1.0060   0.0000   0.0000   0.0000   0.3733
   3.500  -0.3028   0.09335   0.08816   0.0433  1.0000  0.9349  -1.0348   0.0000   0.0000   0.0000   0.3848
   3.750  -0.3235   0.09181   0.08667   0.0457  1.0000  0.9063  -1.0546   0.0000   0.0000   0.0000   0.3836
   4.000   0.2328   0.11355   0.10608  -0.1224  1.0000  0.4078  -0.8628   0.0000   0.0000   0.0000   0.7752
   4.250   0.3197   0.11689   0.10884  -0.1419  1.0000  0.3704  -0.8410   0.0000   0.0000   0.0000   0.6911
   4.500   0.3849   0.12008   0.11152  -0.1548  1.0000  0.3569  -0.8227   0.0000   0.0000   0.0000   0.6483
   4.750   0.4398   0.12337   0.11431  -0.1647  1.0000  0.3559  -0.7991   0.0000   0.0000   0.0000   0.6197
   5.000   0.4886   0.12679   0.11724  -0.1728  1.0000  0.3643  -0.7719   0.0000   0.0000   0.0000   0.5981
   5.250   0.5294   0.13011   0.12014  -0.1786  1.0000  0.3824  -0.7407   0.0000   0.0000   0.0000   0.5811
   5.500   0.5680   0.13360   0.12326  -0.1837  1.0000  0.4129  -0.7351   0.0000   0.0000   0.0000   0.5665
   5.750   0.6035   0.13716   0.12663  -0.1876  1.0000  0.4649  -0.7520   0.0000   0.0000   0.0000   0.5533
   6.000   0.6419   0.14126   0.13101  -0.1910  1.0000  0.5888  -0.7728   0.0000   0.0000   0.0000   0.5393
   6.500   0.7209   0.14787   0.13602  -0.2010  0.9909  1.0000  -0.8063   0.0000   0.0000   0.0000   0.5196
   6.750   0.7404   0.15027   0.13795  -0.2027  0.9820  1.0000  -0.8145   0.0000   0.0000   0.0000   0.5140
   7.000   0.7628   0.15367   0.14093  -0.2049  0.9735  1.0000  -0.8256   0.0000   0.0000   0.0000   0.5083
   7.250   0.7846   0.15714   0.14405  -0.2070  0.9654  1.0000  -0.8372   0.0000   0.0000   0.0000   0.5030
   7.500   0.8002   0.15887   0.14554  -0.2080  0.9556  1.0000  -0.8439   0.0000   0.0000   0.0000   0.4986
   7.750   0.8196   0.16172   0.14815  -0.2097  0.9461  1.0000  -0.8553   0.0000   0.0000   0.0000   0.4940
   8.000   0.8395   0.16488   0.15108  -0.2115  0.9370  1.0000  -0.8669   0.0000   0.0000   0.0000   0.4895
   8.250   0.8593   0.16816   0.15416  -0.2132  0.9279  1.0000  -0.8791   0.0000   0.0000   0.0000   0.4852
   8.500   0.8749   0.17020   0.15605  -0.2143  0.9183  1.0000  -0.8881   0.0000   0.0000   0.0000   0.4815
   8.750   0.8911   0.17252   0.15823  -0.2155  0.9087  1.0000  -0.8992   0.0000   0.0000   0.0000   0.4778
   9.000   0.9078   0.17500   0.16059  -0.2167  0.8990  1.0000  -0.9116   0.0000   0.0000   0.0000   0.4742
   9.250   0.9253   0.17787   0.16335  -0.2181  0.8897  1.0000  -0.9246   0.0000   0.0000   0.0000   0.4707
   9.500   0.9439   0.18119   0.16656  -0.2197  0.8802  1.0000  -0.9383   0.0000   0.0000   0.0000   0.4672
   9.750   0.9594   0.18346   0.16878  -0.2207  0.8704  1.0000  -0.9502   0.0000   0.0000   0.0000   0.4640
  10.000   0.9725   0.18508   0.17034  -0.2215  0.8608  1.0000  -0.9612   0.0000   0.0000   0.0000   0.4612
  10.250   0.9860   0.18694   0.17216  -0.2223  0.8513  1.0000  -0.9738   0.0000   0.0000   0.0000   0.4584
  10.500   1.0003   0.18922   0.17440  -0.2234  0.8425  1.0000  -0.9867   0.0000   0.0000   0.0000   0.4556
  10.750   1.0174   0.19255   0.17769  -0.2248  0.8340  1.0000  -1.0019   0.0000   0.0000   0.0000   0.4527
  11.000   1.0360   0.19632   0.18144  -0.2264  0.8245  1.0000  -1.0207   0.0000   0.0000   0.0000   0.4498
  11.250   1.0460   0.19711   0.18224  -0.2269  0.8151  1.0000  -1.0323   0.0000   0.0000   0.0000   0.4476
  11.500   1.0582   0.19893   0.18407  -0.2277  0.8063  1.0000  -1.0461   0.0000   0.0000   0.0000   0.4454
  11.750   1.0740   0.20221   0.18735  -0.2291  0.7981  1.0000  -1.0633   0.0000   0.0000   0.0000   0.4429
  12.000   1.0918   0.20606   0.19123  -0.2307  0.7886  1.0000  -1.0849   0.0000   0.0000   0.0000   0.4403
  12.250   1.1005   0.20659   0.19180  -0.2311  0.7793  1.0000  -1.0966   0.0000   0.0000   0.0000   0.4385
  12.500   1.1123   0.20861   0.19385  -0.2321  0.7710  1.0000  -1.1111   0.0000   0.0000   0.0000   0.4366
  12.750   1.1295   0.21275   0.19804  -0.2337  0.7626  1.0000  -1.1311   0.0000   0.0000   0.0000   0.4343
  13.000   1.1422   0.21488   0.20024  -0.2347  0.7528  1.0000  -1.1481   0.0000   0.0000   0.0000   0.4323
  13.250   1.1510   0.21585   0.20126  -0.2355  0.7440  1.0000  -1.1606   0.0000   0.0000   0.0000   0.4308
  13.500   1.1641   0.21869   0.20417  -0.2367  0.7360  1.0000  -1.1780   0.0000   0.0000   0.0000   0.4290
  13.750   1.1833   0.22402   0.20960  -0.2386  0.7267  1.0000  -1.2039   0.0000   0.0000   0.0000   0.4267
  14.000   1.1894   0.22371   0.20936  -0.2391  0.7173  1.0000  -1.2142   0.0000   0.0000   0.0000   0.4255
  14.250   1.1991   0.22542   0.21115  -0.2401  0.7089  1.0000  -1.2282   0.0000   0.0000   0.0000   0.4242
  14.500   1.2143   0.22948   0.21530  -0.2417  0.7007  1.0000  -1.2499   0.0000   0.0000   0.0000   0.4224
  14.750   1.2272   0.23231   0.21826  -0.2430  0.6909  1.0000  -1.2713   0.0000   0.0000   0.0000   0.4208
  15.000   1.2341   0.23285   0.21889  -0.2439  0.6821  1.0000  -1.2840   0.0000   0.0000   0.0000   0.4198
  15.250   1.2454   0.23556   0.22170  -0.2453  0.6740  1.0000  -1.3020   0.0000   0.0000   0.0000   0.4185
  15.500   1.2624   0.24082   0.22709  -0.2470  0.6649  1.0000  -1.3273   0.0000   0.0000   0.0000   0.4166
  15.750   1.2691   0.24109   0.22748  -0.2480  0.6554  1.0000  -1.3384   0.0000   0.0000   0.0000   0.4157
  16.000   1.2770   0.24251   0.22901  -0.2492  0.6471  1.0000  -1.3523   0.0000   0.0000   0.0000   0.4149
  16.250   1.2899   0.24628   0.23290  -0.2508  0.6390  1.0000  -1.3746   0.0000   0.0000   0.0000   0.4135
  16.500   1.3040   0.25037   0.23715  -0.2524  0.6293  1.0000  -1.3996   0.0000   0.0000   0.0000   0.4120
  16.750   1.3089   0.25026   0.23715  -0.2535  0.6205  1.0000  -1.4106   0.0000   0.0000   0.0000   0.4115
  17.000   1.3182   0.25261   0.23962  -0.2550  0.6126  1.0000  -1.4280   0.0000   0.0000   0.0000   0.4106
  17.250   1.3329   0.25759   0.24476  -0.2568  0.6041  1.0000  -1.4565   0.0000   0.0000   0.0000   0.4092
  17.500   1.3407   0.25881   0.24612  -0.2581  0.5947  1.0000  -1.4733   0.0000   0.0000   0.0000   0.4084
  17.750   1.3470   0.25985   0.24728  -0.2596  0.5867  1.0000  -1.4865   0.0000   0.0000   0.0000   0.4079
  18.000   1.3584   0.26348   0.25107  -0.2613  0.5789  1.0000  -1.5090   0.0000   0.0000   0.0000   0.4069
  18.250   1.3720   0.26811   0.25587  -0.2630  0.5696  1.0000  -1.5366   0.0000   0.0000   0.0000   0.4056
  18.500   1.3757   0.26761   0.25548  -0.2645  0.5615  1.0000  -1.5463   0.0000   0.0000   0.0000   0.4055
  18.750   1.3844   0.27014   0.25815  -0.2662  0.5540  1.0000  -1.5645   0.0000   0.0000   0.0000   0.4048
  19.000   1.3984   0.27547   0.26364  -0.2679  0.5456  1.0000  -1.5931   0.0000   0.0000   0.0000   0.4035
  19.250   1.4040   0.27584   0.26416  -0.2695  0.5369  1.0000  -1.6052   0.0000   0.0000   0.0000   0.4032
  19.500   1.4104   0.27731   0.26576  -0.2713  0.5296  1.0000  -1.6195   0.0000   0.0000   0.0000   0.4028
  19.750   1.4221   0.28164   0.27025  -0.2731  0.5219  1.0000  -1.6454   0.0000   0.0000   0.0000   0.4018
  20.000   1.4316   0.28440   0.27318  -0.2748  0.5131  1.0000  -1.6659   0.0000   0.0000   0.0000   0.4010
  20.250   1.4361   0.28477   0.27367  -0.2767  0.5058  1.0000  -1.6754   0.0000   0.0000   0.0000   0.4010
  20.500   1.4458   0.28820   0.27725  -0.2785  0.4987  1.0000  -1.6972   0.0000   0.0000   0.0000   0.4003
  20.750   1.4585   0.29331   0.28255  -0.2803  0.4901  1.0000  -1.7257   0.0000   0.0000   0.0000   0.3991
  21.000   1.4612   0.29245   0.28180  -0.2822  0.4827  1.0000  -1.7314   0.0000   0.0000   0.0000   0.3993
  21.250   1.4693   0.29518   0.28467  -0.2842  0.4761  1.0000  -1.7528   0.0000   0.0000   0.0000   0.3988
  21.500   1.4824   0.30092   0.29058  -0.2860  0.4680  1.0000  -1.7859   0.0000   0.0000   0.0000   0.3976
  21.750   1.4855   0.30015   0.28994  -0.2880  0.4605  1.0000  -1.7947   0.0000   0.0000   0.0000   0.3978
  22.000   1.4925   0.30234   0.29227  -0.2900  0.4540  1.0000  -1.8136   0.0000   0.0000   0.0000   0.3974
  22.250   1.5045   0.30773   0.29782  -0.2918  0.4464  1.0000  -1.8478   0.0000   0.0000   0.0000   0.3963
  22.500   1.5089   0.30774   0.29797  -0.2939  0.4389  1.0000  -1.8620   0.0000   0.0000   0.0000   0.3964
  22.750   1.5152   0.30962   0.29998  -0.2961  0.4327  1.0000  -1.8794   0.0000   0.0000   0.0000   0.3962
  23.000   1.5269   0.31496   0.30548  -0.2979  0.4254  1.0000  -1.9112   0.0000   0.0000   0.0000   0.3951
  23.250   1.5311   0.31498   0.30563  -0.3001  0.4181  1.0000  -1.9205   0.0000   0.0000   0.0000   0.3951
  23.500   1.5374   0.31703   0.30780  -0.3023  0.4122  1.0000  -1.9352   0.0000   0.0000   0.0000   0.3949
  23.750   1.5494   0.32277   0.31371  -0.3040  0.4049  1.0000  -1.9697   0.0000   0.0000   0.0000   0.3938
  24.000   1.5522   0.32193   0.31298  -0.3064  0.3982  1.0000  -1.9751   0.0000   0.0000   0.0000   0.3941
  24.250   1.5594   0.32465   0.31583  -0.3086  0.3925  1.0000  -1.9939   0.0000   0.0000   0.0000   0.3937
  24.500   1.5706   0.32992   0.32128  -0.3103  0.3851  1.0000  -2.0254   0.0000   0.0000   0.0000   0.3926
  24.750   1.5727   0.32880   0.32025  -0.3129  0.3792  1.0000  -2.0258   0.0000   0.0000   0.0000   0.3931
  25.000   1.5814   0.33267   0.32426  -0.3149  0.3734  1.0000  -2.0460   0.0000   0.0000   0.0000   0.3924


