xflr5 v6.59

 Calculated polar for: TKV2008

 1 1 Reynolds number fixed          Mach number fixed         

 xtrf =   1.000 (top)        1.000 (bottom)
 Mach =   0.000     Re =     0.700 e 6     Ncrit =   9.000

  alpha     CL        CD       CDp       Cm    Top Xtr Bot Xtr   Cpmin    Chinge    XCp    
 ------- -------- --------- --------- -------- ------- ------- -------- --------- ---------
 -20.750  -0.3513   0.23093   0.22871  -0.0167  1.0000  0.0073  -1.3983   0.0000   0.0000   0.0000   0.1602
 -20.500  -0.3442   0.22877   0.22657  -0.0177  1.0000  0.0074  -1.3660   0.0000   0.0000   0.0000   0.1562
 -20.250  -0.3372   0.22667   0.22447  -0.0187  1.0000  0.0074  -1.3417   0.0000   0.0000   0.0000   0.1520
 -20.000  -0.3301   0.22455   0.22236  -0.0197  1.0000  0.0075  -1.3234   0.0000   0.0000   0.0000   0.1475
 -19.750  -0.3230   0.22240   0.22023  -0.0207  1.0000  0.0075  -1.3091   0.0000   0.0000   0.0000   0.1429
 -19.500  -0.3159   0.22026   0.21809  -0.0217  1.0000  0.0076  -1.2969   0.0000   0.0000   0.0000   0.1382
 -19.250  -0.3090   0.21811   0.21595  -0.0226  1.0000  0.0077  -1.2866   0.0000   0.0000   0.0000   0.1335
 -19.000  -0.3021   0.21594   0.21379  -0.0235  1.0000  0.0078  -1.2784   0.0000   0.0000   0.0000   0.1286
 -18.750  -0.2952   0.21375   0.21162  -0.0243  1.0000  0.0079  -1.2721   0.0000   0.0000   0.0000   0.1236
 -18.500  -0.2885   0.21154   0.20942  -0.0251  1.0000  0.0080  -1.2669   0.0000   0.0000   0.0000   0.1186
 -18.250  -0.2819   0.20932   0.20722  -0.0259  1.0000  0.0081  -1.2625   0.0000   0.0000   0.0000   0.1136
 -16.000  -0.1488   0.18033   0.17822  -0.0552  0.9923  0.0088  -1.3391   0.0000   0.0000   0.0000  -0.2016
 -15.750  -0.1295   0.17686   0.17475  -0.0595  0.9913  0.0089  -1.2828   0.0000   0.0000   0.0000  -0.3014
 -15.500  -0.1120   0.17352   0.17141  -0.0633  0.9900  0.0090  -1.2449   0.0000   0.0000   0.0000  -0.4210
 -15.250  -0.0959   0.17024   0.16812  -0.0666  0.9881  0.0091  -1.2183   0.0000   0.0000   0.0000  -0.5676
 -15.000  -0.0780   0.16683   0.16471  -0.0705  0.9868  0.0092  -1.1955   0.0000   0.0000   0.0000  -0.8051
 -14.750  -0.0590   0.16329   0.16117  -0.0747  0.9859  0.0093  -1.1757   0.0000   0.0000   0.0000  -1.2154
 -14.500  -0.0392   0.15966   0.15753  -0.0792  0.9851  0.0095  -1.1585   0.0000   0.0000   0.0000  -2.0690
 -14.250  -0.0252   0.15639   0.15426  -0.0818  0.9824  0.0097  -1.1474   0.0000   0.0000   0.0000  -3.4653
  -8.500   0.3899   0.08293   0.07908  -0.1631  0.6703  0.0137  -1.1646   0.0000   0.0000   0.0000   0.6932
  -8.250   0.3957   0.08088   0.07700  -0.1637  0.6636  0.0137  -1.2399   0.0000   0.0000   0.0000   0.6876
  -8.000   0.4064   0.07902   0.07511  -0.1635  0.6564  0.0138  -1.1586   0.0000   0.0000   0.0000   0.6749
  -7.750   0.4157   0.07730   0.07337  -0.1635  0.6501  0.0139  -1.1080   0.0000   0.0000   0.0000   0.6646
  -7.500   0.4244   0.07560   0.07165  -0.1636  0.6439  0.0140  -1.0751   0.0000   0.0000   0.0000   0.6555
  -7.250   0.4329   0.07388   0.06992  -0.1636  0.6384  0.0142  -1.0532   0.0000   0.0000   0.0000   0.6470
  -7.000   0.4409   0.07216   0.06819  -0.1636  0.6328  0.0145  -1.0527   0.0000   0.0000   0.0000   0.6391
  -6.750   0.4482   0.07044   0.06645  -0.1635  0.6279  0.0148  -1.0598   0.0000   0.0000   0.0000   0.6317
  -6.500   0.4547   0.06864   0.06466  -0.1633  0.6228  0.0152  -1.0659   0.0000   0.0000   0.0000   0.6251
  -6.250   0.4541   0.06664   0.06267  -0.1630  0.6183  0.0154  -1.1936   0.0000   0.0000   0.0000   0.6242
  -6.000   0.4574   0.06496   0.06100  -0.1619  0.6137  0.0155  -1.2131   0.0000   0.0000   0.0000   0.6183
  -4.500   0.5027   0.05419   0.05025  -0.1634  0.5892  0.0174  -1.3243   0.0000   0.0000   0.0000   0.5841
  -4.250   0.5140   0.05276   0.04883  -0.1629  0.5851  0.0175  -1.2344   0.0000   0.0000   0.0000   0.5751
  -4.000   0.5274   0.05114   0.04717  -0.1638  0.5814  0.0178  -1.1819   0.0000   0.0000   0.0000   0.5678
  -3.750   0.5430   0.04913   0.04517  -0.1656  0.5776  0.0185  -1.1664   0.0000   0.0000   0.0000   0.5614
  -3.500   0.5728   0.04514   0.04116  -0.1736  0.5739  0.0193  -1.3182   0.0000   0.0000   0.0000   0.5587
  -3.250   0.5926   0.04354   0.03952  -0.1751  0.5702  0.0196  -1.2214   0.0000   0.0000   0.0000   0.5503
  -3.000   0.6226   0.04106   0.03702  -0.1800  0.5666  0.0204  -1.1967   0.0000   0.0000   0.0000   0.5432
  -2.750   0.6766   0.03642   0.03231  -0.1925  0.5627  0.0216  -1.2518   0.0000   0.0000   0.0000   0.5378
  -2.000   0.9798   0.01489   0.00880  -0.2576  0.5503  0.0235  -1.8147   0.0000   0.0000   0.0000   0.5142
  -1.750   1.0177   0.01382   0.00747  -0.2600  0.5467  0.0223  -1.7348   0.0000   0.0000   0.0000   0.5062
  -1.500   1.0530   0.01310   0.00648  -0.2616  0.5429  0.0229  -1.6681   0.0000   0.0000   0.0000   0.4987
  -1.250   1.0854   0.01263   0.00581  -0.2625  0.5391  0.0233  -1.5819   0.0000   0.0000   0.0000   0.4916
  -1.000   1.1155   0.01234   0.00549  -0.2631  0.5356  0.0241  -1.5132   0.0000   0.0000   0.0000   0.4851
  -0.750   1.1455   0.01212   0.00520  -0.2636  0.5318  0.0253  -1.5408   0.0000   0.0000   0.0000   0.4788
  -0.500   1.1750   0.01195   0.00502  -0.2640  0.5279  0.0267  -1.5683   0.0000   0.0000   0.0000   0.4729
  -0.250   1.2038   0.01188   0.00491  -0.2642  0.5244  0.0288  -1.5956   0.0000   0.0000   0.0000   0.4672
   0.000   1.2329   0.01180   0.00481  -0.2645  0.5210  0.0310  -1.6245   0.0000   0.0000   0.0000   0.4618
   0.250   1.2616   0.01174   0.00475  -0.2647  0.5174  0.0341  -1.6533   0.0000   0.0000   0.0000   0.4566
   0.500   1.2897   0.01174   0.00471  -0.2648  0.5140  0.0380  -1.6817   0.0000   0.0000   0.0000   0.4517
   0.750   1.3178   0.01174   0.00471  -0.2649  0.5107  0.0456  -1.7102   0.0000   0.0000   0.0000   0.4469
   1.000   1.3480   0.01153   0.00477  -0.2656  0.5069  0.1497  -1.7401   0.0000   0.0000   0.0000   0.4424
   1.250   1.3748   0.01159   0.00489  -0.2655  0.5033  0.2110  -1.7680   0.0000   0.0000   0.0000   0.4380
   1.500   1.4011   0.01170   0.00501  -0.2652  0.4999  0.2395  -1.7956   0.0000   0.0000   0.0000   0.4338
   1.750   1.4277   0.01176   0.00511  -0.2650  0.4962  0.2648  -1.8240   0.0000   0.0000   0.0000   0.4297
   2.000   1.4539   0.01183   0.00523  -0.2648  0.4928  0.2997  -1.8539   0.0000   0.0000   0.0000   0.4257
   2.250   1.4805   0.01191   0.00541  -0.2648  0.4897  0.3732  -1.8851   0.0000   0.0000   0.0000   0.4219
   2.500   1.5091   0.01172   0.00572  -0.2652  0.4861  0.6430  -1.9179   0.0000   0.0000   0.0000   0.4184
   2.750   1.5308   0.01157   0.00594  -0.2639  0.4826  0.8598  -1.9457   0.0000   0.0000   0.0000   0.4146
   3.000   1.5540   0.01164   0.00602  -0.2630  0.4793  1.0000  -1.9745   0.0000   0.0000   0.0000   0.4109
   3.250   1.5790   0.01178   0.00614  -0.2625  0.4757  1.0000  -2.0048   0.0000   0.0000   0.0000   0.4075
   3.500   1.6034   0.01194   0.00626  -0.2619  0.4721  1.0000  -2.0347   0.0000   0.0000   0.0000   0.4041
   3.750   1.6272   0.01216   0.00642  -0.2612  0.4688  1.0000  -2.0641   0.0000   0.0000   0.0000   0.4008
   4.000   1.6516   0.01233   0.00658  -0.2606  0.4654  1.0000  -2.0940   0.0000   0.0000   0.0000   0.3976
   4.250   1.6755   0.01250   0.00674  -0.2599  0.4620  1.0000  -2.1235   0.0000   0.0000   0.0000   0.3945
   4.500   1.6986   0.01273   0.00692  -0.2591  0.4588  1.0000  -2.1526   0.0000   0.0000   0.0000   0.3914
   4.750   1.7221   0.01294   0.00712  -0.2584  0.4555  1.0000  -2.1818   0.0000   0.0000   0.0000   0.3884
   5.000   1.7455   0.01312   0.00731  -0.2577  0.4522  1.0000  -2.2110   0.0000   0.0000   0.0000   0.3855
   5.250   1.7680   0.01336   0.00751  -0.2568  0.4490  1.0000  -2.2396   0.0000   0.0000   0.0000   0.3826
   5.500   1.7905   0.01362   0.00775  -0.2559  0.4460  1.0000  -2.2715   0.0000   0.0000   0.0000   0.3798
   5.750   1.8134   0.01381   0.00797  -0.2552  0.4427  1.0000  -2.3041   0.0000   0.0000   0.0000   0.3771
   6.000   1.8352   0.01405   0.00821  -0.2542  0.4393  1.0000  -2.3359   0.0000   0.0000   0.0000   0.3744
   6.250   1.8561   0.01437   0.00849  -0.2531  0.4361  1.0000  -2.3669   0.0000   0.0000   0.0000   0.3718
   6.500   1.8781   0.01458   0.00874  -0.2521  0.4324  1.0000  -2.3989   0.0000   0.0000   0.0000   0.3692
   6.750   1.8990   0.01485   0.00901  -0.2510  0.4289  1.0000  -2.4300   0.0000   0.0000   0.0000   0.3666
   7.000   1.9190   0.01522   0.00935  -0.2498  0.4258  1.0000  -2.4620   0.0000   0.0000   0.0000   0.3641
   7.250   1.9404   0.01545   0.00964  -0.2488  0.4224  1.0000  -2.4955   0.0000   0.0000   0.0000   0.3616
   7.500   1.9608   0.01575   0.00996  -0.2477  0.4192  1.0000  -2.5282   0.0000   0.0000   0.0000   0.3592
   7.750   1.9800   0.01614   0.01033  -0.2464  0.4162  1.0000  -2.5597   0.0000   0.0000   0.0000   0.3568
   8.000   2.0001   0.01646   0.01070  -0.2452  0.4130  1.0000  -2.5921   0.0000   0.0000   0.0000   0.3544
   8.250   2.0196   0.01679   0.01106  -0.2440  0.4096  1.0000  -2.6240   0.0000   0.0000   0.0000   0.3521
   8.500   2.0377   0.01722   0.01149  -0.2425  0.4065  1.0000  -2.6545   0.0000   0.0000   0.0000   0.3498
   8.750   2.0564   0.01762   0.01193  -0.2412  0.4034  1.0000  -2.6856   0.0000   0.0000   0.0000   0.3475
   9.000   2.0751   0.01800   0.01235  -0.2399  0.4001  1.0000  -2.7166   0.0000   0.0000   0.0000   0.3453
   9.250   2.0924   0.01846   0.01284  -0.2384  0.3969  1.0000  -2.7464   0.0000   0.0000   0.0000   0.3430
   9.500   2.1090   0.01896   0.01336  -0.2368  0.3935  1.0000  -2.7755   0.0000   0.0000   0.0000   0.3408
   9.750   2.1257   0.01941   0.01387  -0.2352  0.3892  1.0000  -2.8047   0.0000   0.0000   0.0000   0.3387
  10.250   2.1554   0.02056   0.01509  -0.2316  0.3803  1.0000  -2.8793   0.0000   0.0000   0.0000   0.3343
  10.500   2.1685   0.02125   0.01579  -0.2296  0.3760  1.0000  -2.9351   0.0000   0.0000   0.0000   0.3322
  10.750   2.1828   0.02189   0.01649  -0.2278  0.3715  1.0000  -2.9929   0.0000   0.0000   0.0000   0.3301
  11.000   2.1956   0.02263   0.01727  -0.2259  0.3670  1.0000  -3.0488   0.0000   0.0000   0.0000   0.3280
  11.250   2.2077   0.02344   0.01812  -0.2239  0.3628  1.0000  -3.1038   0.0000   0.0000   0.0000   0.3260
  11.500   2.2199   0.02426   0.01900  -0.2221  0.3581  1.0000  -3.1631   0.0000   0.0000   0.0000   0.3240
  11.750   2.2293   0.02528   0.02005  -0.2199  0.3539  1.0000  -3.2277   0.0000   0.0000   0.0000   0.3220
  12.000   2.2417   0.02616   0.02101  -0.2182  0.3493  1.0000  -3.3027   0.0000   0.0000   0.0000   0.3201
  12.250   2.2491   0.02739   0.02226  -0.2159  0.3452  1.0000  -3.3693   0.0000   0.0000   0.0000   0.3182
  12.500   2.2602   0.02841   0.02337  -0.2142  0.3401  1.0000  -3.4435   0.0000   0.0000   0.0000   0.3163
  13.000   2.2748   0.03114   0.02621  -0.2102  0.3297  1.0000  -3.5835   0.0000   0.0000   0.0000   0.3127
  13.250   2.2792   0.03283   0.02792  -0.2081  0.3248  1.0000  -3.6512   0.0000   0.0000   0.0000   0.3109
  13.500   2.2861   0.03438   0.02955  -0.2064  0.3193  1.0000  -3.7246   0.0000   0.0000   0.0000   0.3093
  13.750   2.2896   0.03628   0.03150  -0.2044  0.3144  1.0000  -3.7909   0.0000   0.0000   0.0000   0.3076
  14.000   2.2937   0.03819   0.03349  -0.2027  0.3088  1.0000  -3.8647   0.0000   0.0000   0.0000   0.3060
  14.250   2.2960   0.04034   0.03570  -0.2009  0.3034  1.0000  -3.9494   0.0000   0.0000   0.0000   0.3045
  14.500   2.2945   0.04294   0.03833  -0.1990  0.2977  1.0000  -4.0241   0.0000   0.0000   0.0000   0.3030
  14.750   2.2958   0.04533   0.04081  -0.1975  0.2912  1.0000  -4.1071   0.0000   0.0000   0.0000   0.3016
  15.000   2.2929   0.04824   0.04377  -0.1958  0.2846  1.0000  -4.1820   0.0000   0.0000   0.0000   0.3003
  15.250   2.2868   0.05159   0.04717  -0.1941  0.2778  1.0000  -4.2509   0.0000   0.0000   0.0000   0.2991
  15.500   2.2812   0.05499   0.05063  -0.1927  0.2703  1.0000  -4.3216   0.0000   0.0000   0.0000   0.2979
  15.750   2.2735   0.05872   0.05441  -0.1913  0.2623  1.0000  -4.3857   0.0000   0.0000   0.0000   0.2969
  16.000   2.2621   0.06299   0.05873  -0.1899  0.2537  1.0000  -4.4383   0.0000   0.0000   0.0000   0.2959
  16.250   2.2484   0.06768   0.06345  -0.1887  0.2444  1.0000  -4.4829   0.0000   0.0000   0.0000   0.2951
  16.500   2.2319   0.07284   0.06865  -0.1876  0.2341  1.0000  -4.5180   0.0000   0.0000   0.0000   0.2945
  16.750   2.2130   0.07846   0.07430  -0.1867  0.2234  1.0000  -4.5442   0.0000   0.0000   0.0000   0.2940
  17.000   2.1937   0.08427   0.08012  -0.1860  0.2120  1.0000  -4.5907   0.0000   0.0000   0.0000   0.2937
  17.250   2.1727   0.09041   0.08628  -0.1856  0.2004  1.0000  -4.6335   0.0000   0.0000   0.0000   0.2936
  17.500   2.1509   0.09679   0.09266  -0.1854  0.1888  1.0000  -4.6694   0.0000   0.0000   0.0000   0.2936
  17.750   2.1297   0.10315   0.09902  -0.1856  0.1762  1.0000  -4.7053   0.0000   0.0000   0.0000   0.2937
  18.000   2.1085   0.10957   0.10543  -0.1860  0.1649  1.0000  -4.7379   0.0000   0.0000   0.0000   0.2940
  18.250   2.0904   0.11557   0.11143  -0.1866  0.1543  1.0000  -4.7836   0.0000   0.0000   0.0000   0.2943
  18.500   2.0742   0.12128   0.11714  -0.1875  0.1447  1.0000  -4.8376   0.0000   0.0000   0.0000   0.2946
  18.750   2.0605   0.12662   0.12249  -0.1885  0.1365  1.0000  -4.9031   0.0000   0.0000   0.0000   0.2949
  19.000   2.0498   0.13151   0.12739  -0.1895  0.1286  1.0000  -4.9842   0.0000   0.0000   0.0000   0.2952
  19.250   2.0400   0.13622   0.13211  -0.1907  0.1216  1.0000  -5.0703   0.0000   0.0000   0.0000   0.2954
  19.500   2.0320   0.14066   0.13657  -0.1919  0.1151  1.0000  -5.1654   0.0000   0.0000   0.0000   0.2956
  19.750   2.0254   0.14487   0.14080  -0.1932  0.1090  1.0000  -5.2684   0.0000   0.0000   0.0000   0.2958
  20.000   2.0189   0.14904   0.14498  -0.1947  0.1031  1.0000  -5.3717   0.0000   0.0000   0.0000   0.2960
  20.250   2.0131   0.15307   0.14903  -0.1961  0.0978  1.0000  -5.4793   0.0000   0.0000   0.0000   0.2962
  20.500   2.0081   0.15697   0.15295  -0.1976  0.0925  1.0000  -5.5912   0.0000   0.0000   0.0000   0.2964
  20.750   2.0036   0.16076   0.15676  -0.1992  0.0874  1.0000  -5.7065   0.0000   0.0000   0.0000   0.2966
  21.000   1.9996   0.16445   0.16047  -0.2008  0.0826  1.0000  -5.8247   0.0000   0.0000   0.0000   0.2968
  21.250   1.9969   0.16794   0.16399  -0.2024  0.0778  1.0000  -5.9525   0.0000   0.0000   0.0000   0.2969
  21.500   1.9938   0.17145   0.16751  -0.2041  0.0734  1.0000  -6.0779   0.0000   0.0000   0.0000   0.2971
  21.750   1.9910   0.17490   0.17099  -0.2059  0.0692  1.0000  -6.2043   0.0000   0.0000   0.0000   0.2972
  22.000   1.9879   0.17839   0.17449  -0.2077  0.0651  1.0000  -6.3297   0.0000   0.0000   0.0000   0.2975
  22.250   1.9852   0.18179   0.17792  -0.2096  0.0611  1.0000  -6.4570   0.0000   0.0000   0.0000   0.2977
  22.500   1.9823   0.18520   0.18134  -0.2116  0.0574  1.0000  -6.5834   0.0000   0.0000   0.0000   0.2980
  22.750   1.9805   0.18842   0.18459  -0.2135  0.0539  1.0000  -6.7181   0.0000   0.0000   0.0000   0.2982
  23.000   1.9793   0.19152   0.18772  -0.2154  0.0507  1.0000  -6.8585   0.0000   0.0000   0.0000   0.2984
  23.250   1.9777   0.19465   0.19088  -0.2174  0.0478  1.0000  -7.0016   0.0000   0.0000   0.0000   0.2986
  23.500   1.9760   0.19782   0.19408  -0.2195  0.0450  1.0000  -7.1460   0.0000   0.0000   0.0000   0.2988
  23.750   1.9741   0.20098   0.19727  -0.2216  0.0424  1.0000  -7.2891   0.0000   0.0000   0.0000   0.2991
  24.000   1.9732   0.20396   0.20029  -0.2237  0.0400  1.0000  -7.4417   0.0000   0.0000   0.0000   0.2993
  24.250   1.9721   0.20695   0.20332  -0.2258  0.0376  1.0000  -7.5928   0.0000   0.0000   0.0000   0.2996
  24.500   1.9701   0.21009   0.20650  -0.2281  0.0354  1.0000  -7.7352   0.0000   0.0000   0.0000   0.2999
  24.750   1.9683   0.21318   0.20962  -0.2304  0.0332  1.0000  -7.8792   0.0000   0.0000   0.0000   0.3003
  25.000   1.9675   0.21607   0.21255  -0.2327  0.0311  1.0000  -8.0345   0.0000   0.0000   0.0000   0.3005


