xflr5 v6.59

 Calculated polar for: TKV2008

 1 1 Reynolds number fixed          Mach number fixed         

 xtrf =   1.000 (top)        1.000 (bottom)
 Mach =   0.000     Re =     0.380 e 6     Ncrit =   9.000

  alpha     CL        CD       CDp       Cm    Top Xtr Bot Xtr   Cpmin    Chinge    XCp    
 ------- -------- --------- --------- -------- ------- ------- -------- --------- ---------
 -25.000  -0.4690   0.26856   0.26540   0.0040  1.0000  0.0089  -1.3739   0.0000   0.0000   0.0000   0.2173
 -24.750  -0.4619   0.26652   0.26337   0.0025  1.0000  0.0089  -1.3506   0.0000   0.0000   0.0000   0.2142
 -24.500  -0.4546   0.26444   0.26130   0.0010  1.0000  0.0090  -1.3363   0.0000   0.0000   0.0000   0.2110
 -24.250  -0.4473   0.26237   0.25923  -0.0005  1.0000  0.0091  -1.3242   0.0000   0.0000   0.0000   0.2078
 -24.000  -0.4400   0.26027   0.25713  -0.0020  1.0000  0.0092  -1.3133   0.0000   0.0000   0.0000   0.2044
 -23.750  -0.4326   0.25813   0.25501  -0.0034  1.0000  0.0093  -1.3029   0.0000   0.0000   0.0000   0.2009
 -23.500  -0.4252   0.25599   0.25287  -0.0048  1.0000  0.0095  -1.2929   0.0000   0.0000   0.0000   0.1974
 -23.250  -0.4178   0.25383   0.25072  -0.0062  1.0000  0.0096  -1.2855   0.0000   0.0000   0.0000   0.1938
 -23.000  -0.4104   0.25165   0.24855  -0.0076  1.0000  0.0097  -1.2848   0.0000   0.0000   0.0000   0.1900
 -22.750  -0.4030   0.24945   0.24636  -0.0090  1.0000  0.0099  -1.2846   0.0000   0.0000   0.0000   0.1862
 -22.500  -0.3956   0.24724   0.24415  -0.0103  1.0000  0.0100  -1.2847   0.0000   0.0000   0.0000   0.1823
 -22.250  -0.3882   0.24501   0.24193  -0.0116  1.0000  0.0101  -1.2854   0.0000   0.0000   0.0000   0.1783
 -22.000  -0.3808   0.24278   0.23971  -0.0129  1.0000  0.0102  -1.2869   0.0000   0.0000   0.0000   0.1742
 -21.750  -0.3734   0.24053   0.23747  -0.0141  1.0000  0.0102  -1.2894   0.0000   0.0000   0.0000   0.1699
 -21.500  -0.3660   0.23822   0.23516  -0.0154  1.0000  0.0103  -1.2930   0.0000   0.0000   0.0000   0.1656
 -20.500  -0.3369   0.22916   0.22615  -0.0202  1.0000  0.0104  -1.3327   0.0000   0.0000   0.0000   0.1465
 -20.250  -0.3299   0.22693   0.22393  -0.0211  1.0000  0.0104  -1.3052   0.0000   0.0000   0.0000   0.1422
 -20.000  -0.3228   0.22478   0.22180  -0.0221  1.0000  0.0105  -1.2869   0.0000   0.0000   0.0000   0.1375
 -19.750  -0.3157   0.22262   0.21965  -0.0231  1.0000  0.0106  -1.2738   0.0000   0.0000   0.0000   0.1326
 -19.500  -0.3086   0.22047   0.21752  -0.0241  1.0000  0.0107  -1.2637   0.0000   0.0000   0.0000   0.1275
 -19.250  -0.3016   0.21831   0.21536  -0.0250  1.0000  0.0108  -1.2557   0.0000   0.0000   0.0000   0.1223
 -19.000  -0.2947   0.21613   0.21320  -0.0259  1.0000  0.0109  -1.2489   0.0000   0.0000   0.0000   0.1170
 -18.750  -0.2878   0.21393   0.21102  -0.0268  1.0000  0.0110  -1.2432   0.0000   0.0000   0.0000   0.1116
 -18.500  -0.2810   0.21173   0.20884  -0.0276  1.0000  0.0112  -1.2381   0.0000   0.0000   0.0000   0.1061
 -18.250  -0.2743   0.20953   0.20665  -0.0284  1.0000  0.0113  -1.2335   0.0000   0.0000   0.0000   0.1005
 -18.000  -0.2678   0.20732   0.20446  -0.0291  1.0000  0.0114  -1.2296   0.0000   0.0000   0.0000   0.0949
 -17.750  -0.2613   0.20512   0.20228  -0.0298  1.0000  0.0116  -1.2264   0.0000   0.0000   0.0000   0.0892
 -17.500  -0.2550   0.20291   0.20009  -0.0304  1.0000  0.0117  -1.2245   0.0000   0.0000   0.0000   0.0835
 -17.250  -0.2488   0.20070   0.19789  -0.0310  1.0000  0.0118  -1.2249   0.0000   0.0000   0.0000   0.0777
 -16.000  -0.2218   0.18992   0.18723  -0.0331  1.0000  0.0121  -1.2971   0.0000   0.0000   0.0000   0.0516
 -15.750  -0.2173   0.18795   0.18529  -0.0331  1.0000  0.0121  -1.2730   0.0000   0.0000   0.0000   0.0485
 -15.500  -0.1970   0.18429   0.18163  -0.0378  0.9985  0.0123  -1.2420   0.0000   0.0000   0.0000   0.0041
 -15.250  -0.1766   0.18071   0.17804  -0.0425  0.9968  0.0124  -1.2192   0.0000   0.0000   0.0000  -0.0511
 -15.000  -0.1567   0.17701   0.17433  -0.0470  0.9949  0.0126  -1.2014   0.0000   0.0000   0.0000  -0.1181
 -13.250  -0.0207   0.15092   0.14820  -0.0777  0.9802  0.0138  -1.1938   0.0000   0.0000   0.0000  -4.0091
 -13.000   0.0004   0.14726   0.14453  -0.0821  0.9789  0.0140  -1.1530   0.0000   0.0000   0.0000  234.1519
 -12.750   0.0169   0.14382   0.14109  -0.0853  0.9746  0.0142  -1.1334   0.0000   0.0000   0.0000   5.9149
 -12.500   0.0379   0.14007   0.13734  -0.0898  0.9727  0.0144  -1.1187   0.0000   0.0000   0.0000   2.8996
 -11.250   0.1700   0.11962   0.11686  -0.1121  0.8931  0.0156  -1.0182   0.0000   0.0000   0.0000   0.9643
 -11.000   0.2089   0.11409   0.11124  -0.1217  0.8839  0.0160  -0.9668   0.0000   0.0000   0.0000   0.8783
 -10.750   0.2567   0.10790   0.10491  -0.1341  0.8726  0.0165  -0.9282   0.0000   0.0000   0.0000   0.8111
 -10.500   0.3095   0.10149   0.09830  -0.1482  0.8540  0.0171  -0.9404   0.0000   0.0000   0.0000   0.7624
 -10.250   0.3418   0.09709   0.09361  -0.1563  0.8222  0.0174  -0.9799   0.0000   0.0000   0.0000   0.7381
 -10.000   0.3564   0.09470   0.09101  -0.1580  0.7933  0.0176  -0.9326   0.0000   0.0000   0.0000   0.7222
  -9.750   0.3659   0.09270   0.08886  -0.1584  0.7726  0.0179  -0.9330   0.0000   0.0000   0.0000   0.7107
  -9.250   0.3697   0.08993   0.08596  -0.1624  0.7678  0.0182  -0.9989   0.0000   0.0000   0.0000   0.7181
  -8.500   0.3943   0.08429   0.08006  -0.1637  0.7276  0.0191  -1.0554   0.0000   0.0000   0.0000   0.6900
  -8.250   0.4012   0.08240   0.07812  -0.1643  0.7174  0.0192  -1.0988   0.0000   0.0000   0.0000   0.6831
  -8.000   0.4113   0.08053   0.07620  -0.1641  0.7080  0.0194  -1.0389   0.0000   0.0000   0.0000   0.6714
  -7.750   0.4206   0.07879   0.07441  -0.1642  0.6996  0.0197  -1.0288   0.0000   0.0000   0.0000   0.6616
  -7.500   0.4293   0.07705   0.07263  -0.1644  0.6917  0.0201  -1.0372   0.0000   0.0000   0.0000   0.6529
  -7.250   0.4377   0.07527   0.07083  -0.1646  0.6845  0.0205  -1.0449   0.0000   0.0000   0.0000   0.6450
  -7.000   0.4453   0.07345   0.06896  -0.1650  0.6781  0.0210  -1.0510   0.0000   0.0000   0.0000   0.6384
  -6.750   0.4492   0.07163   0.06716  -0.1654  0.6717  0.0212  -1.0943   0.0000   0.0000   0.0000   0.6353
  -6.500   0.4602   0.06986   0.06534  -0.1650  0.6659  0.0215  -1.0645   0.0000   0.0000   0.0000   0.6246
  -6.250   0.4680   0.06828   0.06377  -0.1646  0.6598  0.0218  -1.0730   0.0000   0.0000   0.0000   0.6168
  -6.000   0.4749   0.06668   0.06215  -0.1643  0.6545  0.0223  -1.0806   0.0000   0.0000   0.0000   0.6100
  -5.750   0.4793   0.06510   0.06058  -0.1637  0.6493  0.0229  -1.0858   0.0000   0.0000   0.0000   0.6047
  -5.500   0.4783   0.06351   0.05901  -0.1639  0.6444  0.0233  -1.1525   0.0000   0.0000   0.0000   0.6051
  -5.250   0.4907   0.06188   0.05733  -0.1632  0.6397  0.0237  -1.0975   0.0000   0.0000   0.0000   0.5941
  -5.000   0.4999   0.06032   0.05579  -0.1632  0.6344  0.0243  -1.1064   0.0000   0.0000   0.0000   0.5872
  -4.750   0.5115   0.05836   0.05380  -0.1651  0.6299  0.0253  -1.1139   0.0000   0.0000   0.0000   0.5825
  -4.500   0.5240   0.05618   0.05163  -0.1673  0.6253  0.0257  -1.1222   0.0000   0.0000   0.0000   0.5782
  -4.250   0.5372   0.05454   0.04999  -0.1677  0.6207  0.0261  -1.1334   0.0000   0.0000   0.0000   0.5702
  -4.000   0.5561   0.05248   0.04787  -0.1705  0.6169  0.0271  -1.1465   0.0000   0.0000   0.0000   0.5639
  -3.750   0.5783   0.04962   0.04503  -0.1758  0.6125  0.0280  -1.1582   0.0000   0.0000   0.0000   0.5605
  -3.500   0.5965   0.04792   0.04331  -0.1771  0.6082  0.0287  -1.1740   0.0000   0.0000   0.0000   0.5525
  -3.250   0.6356   0.04429   0.03958  -0.1867  0.6045  0.0304  -1.1945   0.0000   0.0000   0.0000   0.5485
  -3.000   0.6562   0.04265   0.03795  -0.1880  0.5999  0.0313  -1.2118   0.0000   0.0000   0.0000   0.5407
  -2.500   0.7476   0.03599   0.03108  -0.2064  0.5919  0.0362  -1.2663   0.0000   0.0000   0.0000   0.5287
  -2.250   0.7993   0.03255   0.02754  -0.2161  0.5872  0.0392  -1.2977   0.0000   0.0000   0.0000   0.5223
  -1.250   1.0737   0.01649   0.00919  -0.2609  0.5708  0.0345  -1.4735   0.0000   0.0000   0.0000   0.4928
  -1.000   1.1092   0.01569   0.00809  -0.2625  0.5669  0.0338  -1.5032   0.0000   0.0000   0.0000   0.4860
  -0.750   1.1404   0.01528   0.00749  -0.2631  0.5627  0.0353  -1.5308   0.0000   0.0000   0.0000   0.4796
  -0.500   1.1710   0.01498   0.00714  -0.2637  0.5591  0.0372  -1.5586   0.0000   0.0000   0.0000   0.4736
  -0.250   1.2014   0.01475   0.00687  -0.2643  0.5555  0.0394  -1.5873   0.0000   0.0000   0.0000   0.4679
   0.000   1.2304   0.01457   0.00670  -0.2646  0.5512  0.0427  -1.6157   0.0000   0.0000   0.0000   0.4624
   0.250   1.2604   0.01446   0.00656  -0.2650  0.5475  0.0468  -1.6451   0.0000   0.0000   0.0000   0.4572
   0.500   1.2899   0.01439   0.00650  -0.2655  0.5437  0.0537  -1.6740   0.0000   0.0000   0.0000   0.4523
   0.750   1.3191   0.01430   0.00645  -0.2658  0.5397  0.0715  -1.7027   0.0000   0.0000   0.0000   0.4475
   1.000   1.3500   0.01414   0.00660  -0.2667  0.5363  0.2278  -1.7330   0.0000   0.0000   0.0000   0.4431
   1.250   1.3777   0.01427   0.00673  -0.2668  0.5329  0.2658  -1.7612   0.0000   0.0000   0.0000   0.4387
   1.500   1.4041   0.01434   0.00687  -0.2666  0.5290  0.2993  -1.7891   0.0000   0.0000   0.0000   0.4345
   1.750   1.4319   0.01439   0.00701  -0.2668  0.5255  0.3544  -1.8185   0.0000   0.0000   0.0000   0.4304
   2.000   1.4614   0.01431   0.00731  -0.2674  0.5220  0.5517  -1.8508   0.0000   0.0000   0.0000   0.4266
   2.250   1.4794   0.01389   0.00751  -0.2652  0.5182  1.0000  -1.8754   0.0000   0.0000   0.0000   0.4224
   2.500   1.5061   0.01409   0.00760  -0.2650  0.5146  1.0000  -1.9065   0.0000   0.0000   0.0000   0.4187
   2.750   1.5339   0.01433   0.00772  -0.2651  0.5115  1.0000  -1.9387   0.0000   0.0000   0.0000   0.4151
   3.000   1.5586   0.01451   0.00790  -0.2645  0.5077  1.0000  -1.9681   0.0000   0.0000   0.0000   0.4115
   3.250   1.5843   0.01471   0.00804  -0.2642  0.5041  1.0000  -1.9987   0.0000   0.0000   0.0000   0.4081
   3.500   1.6118   0.01496   0.00818  -0.2643  0.5010  1.0000  -2.0309   0.0000   0.0000   0.0000   0.4048
   3.750   1.6354   0.01516   0.00840  -0.2635  0.4972  1.0000  -2.0596   0.0000   0.0000   0.0000   0.4015
   4.000   1.6601   0.01536   0.00857  -0.2630  0.4935  1.0000  -2.0896   0.0000   0.0000   0.0000   0.3983
   4.250   1.6865   0.01561   0.00874  -0.2629  0.4903  1.0000  -2.1212   0.0000   0.0000   0.0000   0.3953
   4.500   1.7097   0.01584   0.00898  -0.2621  0.4866  1.0000  -2.1497   0.0000   0.0000   0.0000   0.3922
   4.750   1.7335   0.01606   0.00920  -0.2615  0.4830  1.0000  -2.1790   0.0000   0.0000   0.0000   0.3893
   5.000   1.7590   0.01632   0.00939  -0.2612  0.4799  1.0000  -2.2098   0.0000   0.0000   0.0000   0.3864
   5.250   1.7822   0.01657   0.00967  -0.2605  0.4764  1.0000  -2.2407   0.0000   0.0000   0.0000   0.3836
   5.500   1.8048   0.01682   0.00993  -0.2596  0.4728  1.0000  -2.2727   0.0000   0.0000   0.0000   0.3808
   5.750   1.8291   0.01708   0.01016  -0.2592  0.4697  1.0000  -2.3065   0.0000   0.0000   0.0000   0.3782
   6.000   1.8529   0.01738   0.01045  -0.2586  0.4666  1.0000  -2.3397   0.0000   0.0000   0.0000   0.3755
   6.250   1.8741   0.01765   0.01077  -0.2575  0.4630  1.0000  -2.3705   0.0000   0.0000   0.0000   0.3729
   6.500   1.8966   0.01793   0.01104  -0.2567  0.4598  1.0000  -2.4028   0.0000   0.0000   0.0000   0.3703
   6.750   1.9206   0.01825   0.01133  -0.2563  0.4567  1.0000  -2.4367   0.0000   0.0000   0.0000   0.3679
   7.000   1.9376   0.01854   0.01170  -0.2544  0.4529  1.0000  -2.4658   0.0000   0.0000   0.0000   0.3652
   7.250   1.9577   0.01884   0.01200  -0.2531  0.4495  1.0000  -2.4981   0.0000   0.0000   0.0000   0.3627
   7.500   1.9811   0.01918   0.01231  -0.2526  0.4464  1.0000  -2.5335   0.0000   0.0000   0.0000   0.3604
   7.750   1.9958   0.01952   0.01275  -0.2503  0.4427  1.0000  -2.5604   0.0000   0.0000   0.0000   0.3578
   8.000   2.0146   0.01986   0.01311  -0.2489  0.4393  1.0000  -2.5915   0.0000   0.0000   0.0000   0.3554
   8.250   2.0388   0.02022   0.01343  -0.2486  0.4364  1.0000  -2.6277   0.0000   0.0000   0.0000   0.3532
   8.500   2.0527   0.02064   0.01397  -0.2463  0.4330  1.0000  -2.6537   0.0000   0.0000   0.0000   0.3508
   8.750   2.0701   0.02104   0.01442  -0.2446  0.4296  1.0000  -2.6832   0.0000   0.0000   0.0000   0.3485
   9.000   2.0913   0.02143   0.01480  -0.2438  0.4267  1.0000  -2.7167   0.0000   0.0000   0.0000   0.3463
   9.250   2.1060   0.02192   0.01537  -0.2418  0.4232  1.0000  -2.7434   0.0000   0.0000   0.0000   0.3440
   9.500   2.1208   0.02240   0.01593  -0.2398  0.4196  1.0000  -2.7703   0.0000   0.0000   0.0000   0.3417
   9.750   2.1402   0.02285   0.01637  -0.2386  0.4165  1.0000  -2.8020   0.0000   0.0000   0.0000   0.3396
  10.000   2.1557   0.02340   0.01700  -0.2369  0.4133  1.0000  -2.8370   0.0000   0.0000   0.0000   0.3374
  10.250   2.1683   0.02399   0.01768  -0.2346  0.4097  1.0000  -2.8872   0.0000   0.0000   0.0000   0.3352
  10.500   2.1849   0.02450   0.01819  -0.2331  0.4060  1.0000  -2.9484   0.0000   0.0000   0.0000   0.3331
  10.750   2.1916   0.02528   0.01909  -0.2300  0.4014  1.0000  -2.9952   0.0000   0.0000   0.0000   0.3308
  11.000   2.2007   0.02600   0.01985  -0.2273  0.3966  1.0000  -3.0460   0.0000   0.0000   0.0000   0.3285
  11.250   2.2079   0.02687   0.02081  -0.2245  0.3919  1.0000  -3.0941   0.0000   0.0000   0.0000   0.3263
  11.500   2.2151   0.02778   0.02178  -0.2217  0.3871  1.0000  -3.1462   0.0000   0.0000   0.0000   0.3242
  11.750   2.2252   0.02868   0.02274  -0.2195  0.3830  1.0000  -3.2113   0.0000   0.0000   0.0000   0.3221
  12.000   2.2316   0.02976   0.02393  -0.2170  0.3788  1.0000  -3.2736   0.0000   0.0000   0.0000   0.3201
  12.250   2.2435   0.03065   0.02483  -0.2152  0.3748  1.0000  -3.3490   0.0000   0.0000   0.0000   0.3182
  12.500   2.2445   0.03212   0.02646  -0.2121  0.3699  1.0000  -3.4031   0.0000   0.0000   0.0000   0.3161
  12.750   2.2520   0.03332   0.02769  -0.2100  0.3656  1.0000  -3.4706   0.0000   0.0000   0.0000   0.3142
  13.000   2.2551   0.03487   0.02937  -0.2075  0.3610  1.0000  -3.5307   0.0000   0.0000   0.0000   0.3124
  13.250   2.2598   0.03637   0.03094  -0.2054  0.3565  1.0000  -3.5990   0.0000   0.0000   0.0000   0.3106
  13.500   2.2623   0.03813   0.03280  -0.2031  0.3517  1.0000  -3.6623   0.0000   0.0000   0.0000   0.3089
  13.750   2.2638   0.04004   0.03478  -0.2010  0.3465  1.0000  -3.7240   0.0000   0.0000   0.0000   0.3072
  14.000   2.2637   0.04220   0.03706  -0.1989  0.3412  1.0000  -3.7819   0.0000   0.0000   0.0000   0.3056
  14.250   2.2646   0.04434   0.03925  -0.1970  0.3360  1.0000  -3.8511   0.0000   0.0000   0.0000   0.3040
  14.500   2.2624   0.04692   0.04197  -0.1951  0.3304  1.0000  -3.9222   0.0000   0.0000   0.0000   0.3026
  14.750   2.2622   0.04935   0.04443  -0.1934  0.3252  1.0000  -4.0003   0.0000   0.0000   0.0000   0.3012
  15.000   2.2578   0.05236   0.04759  -0.1917  0.3192  1.0000  -4.0658   0.0000   0.0000   0.0000   0.2999
  15.250   2.2543   0.05535   0.05066  -0.1903  0.3134  1.0000  -4.1346   0.0000   0.0000   0.0000   0.2986
  15.500   2.2493   0.05858   0.05396  -0.1888  0.3073  1.0000  -4.2005   0.0000   0.0000   0.0000   0.2975
  15.750   2.2428   0.06213   0.05763  -0.1876  0.3009  1.0000  -4.2670   0.0000   0.0000   0.0000   0.2964
  16.000   2.2356   0.06585   0.06143  -0.1865  0.2944  1.0000  -4.3312   0.0000   0.0000   0.0000   0.2954
  16.250   2.2268   0.06983   0.06547  -0.1854  0.2875  1.0000  -4.3906   0.0000   0.0000   0.0000   0.2945
  16.500   2.2158   0.07424   0.06999  -0.1846  0.2798  1.0000  -4.4422   0.0000   0.0000   0.0000   0.2938
  16.750   2.2040   0.07886   0.07469  -0.1839  0.2719  1.0000  -4.4910   0.0000   0.0000   0.0000   0.2932
  17.000   2.1913   0.08367   0.07959  -0.1833  0.2636  1.0000  -4.5543   0.0000   0.0000   0.0000   0.2926
  17.250   2.1777   0.08869   0.08467  -0.1829  0.2550  1.0000  -4.6304   0.0000   0.0000   0.0000   0.2922
  17.500   2.1632   0.09391   0.08994  -0.1828  0.2457  1.0000  -4.7037   0.0000   0.0000   0.0000   0.2919
  17.750   2.1470   0.09942   0.09550  -0.1828  0.2357  1.0000  -4.7683   0.0000   0.0000   0.0000   0.2918
  18.000   2.1298   0.10514   0.10123  -0.1831  0.2252  1.0000  -4.8250   0.0000   0.0000   0.0000   0.2918
  18.250   2.1126   0.11092   0.10704  -0.1836  0.2139  1.0000  -4.8782   0.0000   0.0000   0.0000   0.2920
  18.500   2.0952   0.11674   0.11287  -0.1844  0.2020  1.0000  -4.9279   0.0000   0.0000   0.0000   0.2923
  19.000   2.0607   0.12840   0.12451  -0.1867  0.1780  1.0000  -5.0173   0.0000   0.0000   0.0000   0.2933
  19.250   2.0441   0.13414   0.13022  -0.1881  0.1669  1.0000  -5.0606   0.0000   0.0000   0.0000   0.2939
  19.500   2.0300   0.13948   0.13553  -0.1897  0.1568  1.0000  -5.1166   0.0000   0.0000   0.0000   0.2946
  19.750   2.0184   0.14443   0.14047  -0.1913  0.1474  1.0000  -5.1858   0.0000   0.0000   0.0000   0.2951
  20.000   2.0082   0.14915   0.14518  -0.1930  0.1391  1.0000  -5.2619   0.0000   0.0000   0.0000   0.2956
  20.250   1.9998   0.15358   0.14961  -0.1947  0.1314  1.0000  -5.3483   0.0000   0.0000   0.0000   0.2961
  20.500   1.9925   0.15781   0.15385  -0.1964  0.1242  1.0000  -5.4417   0.0000   0.0000   0.0000   0.2965
  20.750   1.9862   0.16188   0.15793  -0.1982  0.1177  1.0000  -5.5406   0.0000   0.0000   0.0000   0.2969
  21.000   1.9809   0.16579   0.16184  -0.2000  0.1117  1.0000  -5.6454   0.0000   0.0000   0.0000   0.2973
  21.250   1.9761   0.16958   0.16564  -0.2018  0.1058  1.0000  -5.7537   0.0000   0.0000   0.0000   0.2977
  21.500   1.9716   0.17332   0.16939  -0.2037  0.1005  1.0000  -5.8633   0.0000   0.0000   0.0000   0.2980
  21.750   1.9685   0.17682   0.17292  -0.2056  0.0951  1.0000  -5.9834   0.0000   0.0000   0.0000   0.2983
  22.000   1.9658   0.18025   0.17638  -0.2075  0.0900  1.0000  -6.1062   0.0000   0.0000   0.0000   0.2986
  22.250   1.9629   0.18367   0.17982  -0.2095  0.0852  1.0000  -6.2271   0.0000   0.0000   0.0000   0.2989
  22.500   1.9598   0.18715   0.18333  -0.2115  0.0807  1.0000  -6.3466   0.0000   0.0000   0.0000   0.2993
  22.750   1.9569   0.19057   0.18676  -0.2137  0.0763  1.0000  -6.4671   0.0000   0.0000   0.0000   0.2997
  23.000   1.9546   0.19388   0.19009  -0.2158  0.0721  1.0000  -6.5921   0.0000   0.0000   0.0000   0.3000
  23.250   1.9528   0.19710   0.19336  -0.2179  0.0680  1.0000  -6.7213   0.0000   0.0000   0.0000   0.3004
  23.500   1.9510   0.20027   0.19657  -0.2201  0.0642  1.0000  -6.8511   0.0000   0.0000   0.0000   0.3007
  23.750   1.9489   0.20351   0.19984  -0.2224  0.0608  1.0000  -6.9768   0.0000   0.0000   0.0000   0.3011
  24.000   1.9463   0.20680   0.20313  -0.2248  0.0575  1.0000  -7.0993   0.0000   0.0000   0.0000   0.3016
  24.250   1.9453   0.20984   0.20623  -0.2270  0.0542  1.0000  -7.2426   0.0000   0.0000   0.0000   0.3019
  24.500   1.9439   0.21288   0.20932  -0.2294  0.0512  1.0000  -7.3826   0.0000   0.0000   0.0000   0.3023
  24.750   1.9423   0.21597   0.21244  -0.2318  0.0485  1.0000  -7.5211   0.0000   0.0000   0.0000   0.3027
  25.000   1.9406   0.21903   0.21554  -0.2342  0.0460  1.0000  -7.6590   0.0000   0.0000   0.0000   0.3031


