xflr5 v6.59

 Calculated polar for: TKV2008

 1 1 Reynolds number fixed          Mach number fixed         

 xtrf =   1.000 (top)        1.000 (bottom)
 Mach =   0.000     Re =     0.310 e 6     Ncrit =   9.000

  alpha     CL        CD       CDp       Cm    Top Xtr Bot Xtr   Cpmin    Chinge    XCp    
 ------- -------- --------- --------- -------- ------- ------- -------- --------- ---------
 -24.000  -0.4375   0.25997   0.25649  -0.0028  1.0000  0.0104  -1.3451   0.0000   0.0000   0.0000   0.2019
 -23.750  -0.4303   0.25788   0.25441  -0.0042  1.0000  0.0105  -1.3225   0.0000   0.0000   0.0000   0.1986
 -23.500  -0.4230   0.25578   0.25232  -0.0056  1.0000  0.0106  -1.3050   0.0000   0.0000   0.0000   0.1951
 -23.250  -0.4157   0.25367   0.25022  -0.0070  1.0000  0.0107  -1.2964   0.0000   0.0000   0.0000   0.1914
 -23.000  -0.4083   0.25154   0.24810  -0.0084  1.0000  0.0108  -1.2903   0.0000   0.0000   0.0000   0.1877
 -22.750  -0.4009   0.24939   0.24596  -0.0097  1.0000  0.0109  -1.2852   0.0000   0.0000   0.0000   0.1838
 -22.500  -0.3935   0.24719   0.24376  -0.0111  1.0000  0.0110  -1.2806   0.0000   0.0000   0.0000   0.1799
 -19.500  -0.3062   0.22043   0.21715  -0.0250  1.0000  0.0121  -1.2948   0.0000   0.0000   0.0000   0.1232
 -19.250  -0.2993   0.21825   0.21499  -0.0259  1.0000  0.0121  -1.2739   0.0000   0.0000   0.0000   0.1182
 -19.000  -0.2924   0.21609   0.21284  -0.0267  1.0000  0.0122  -1.2589   0.0000   0.0000   0.0000   0.1129
 -18.750  -0.2855   0.21394   0.21071  -0.0276  1.0000  0.0124  -1.2472   0.0000   0.0000   0.0000   0.1074
 -18.500  -0.2787   0.21178   0.20857  -0.0284  1.0000  0.0125  -1.2376   0.0000   0.0000   0.0000   0.1018
 -18.250  -0.2720   0.20961   0.20642  -0.0292  1.0000  0.0126  -1.2293   0.0000   0.0000   0.0000   0.0960
 -18.000  -0.2654   0.20744   0.20426  -0.0299  1.0000  0.0128  -1.2219   0.0000   0.0000   0.0000   0.0902
 -17.750  -0.2589   0.20526   0.20210  -0.0306  1.0000  0.0129  -1.2152   0.0000   0.0000   0.0000   0.0843
 -17.500  -0.2525   0.20309   0.19996  -0.0312  1.0000  0.0131  -1.2090   0.0000   0.0000   0.0000   0.0784
 -15.750  -0.2145   0.18819   0.18524  -0.0343  1.0000  0.0137  -1.2942   0.0000   0.0000   0.0000   0.0401
 -15.500  -0.2102   0.18619   0.18327  -0.0341  1.0000  0.0138  -1.2657   0.0000   0.0000   0.0000   0.0375
 -15.250  -0.2058   0.18425   0.18137  -0.0341  0.9999  0.0139  -1.2469   0.0000   0.0000   0.0000   0.0340
 -15.000  -0.1846   0.18050   0.17760  -0.0390  0.9981  0.0141  -1.2197   0.0000   0.0000   0.0000  -0.0174
 -13.250  -0.0429   0.15411   0.15116  -0.0715  0.9818  0.0155  -1.1980   0.0000   0.0000   0.0000  -1.6594
 -13.000  -0.0223   0.15040   0.14745  -0.0758  0.9797  0.0157  -1.1572   0.0000   0.0000   0.0000  -3.6109
 -12.750  -0.0036   0.14679   0.14384  -0.0796  0.9763  0.0159  -1.1352   0.0000   0.0000   0.0000  -24.5561
 -11.000   0.1017   0.12321   0.12027  -0.0986  0.9122  0.0174  -1.1409   0.0000   0.0000   0.0000   1.3136
 -10.750   0.1258   0.11921   0.11623  -0.1034  0.9016  0.0177  -1.0935   0.0000   0.0000   0.0000   1.1479
 -10.500   0.1569   0.11466   0.11163  -0.1104  0.8921  0.0181  -1.0595   0.0000   0.0000   0.0000   1.0151
 -10.250   0.1959   0.10952   0.10639  -0.1199  0.8822  0.0187  -1.0363   0.0000   0.0000   0.0000   0.9121
  -9.750   0.3007   0.09784   0.09438  -0.1469  0.8557  0.0197  -1.0200   0.0000   0.0000   0.0000   0.7735
  -9.500   0.3447   0.09333   0.08961  -0.1575  0.8288  0.0203  -0.9922   0.0000   0.0000   0.0000   0.7380
  -9.250   0.3659   0.09058   0.08663  -0.1616  0.8018  0.0208  -0.9964   0.0000   0.0000   0.0000   0.7205
  -9.000   0.3769   0.08852   0.08441  -0.1631  0.7808  0.0211  -1.0365   0.0000   0.0000   0.0000   0.7103
  -8.250   0.4065   0.08285   0.07844  -0.1645  0.7397  0.0219  -1.0138   0.0000   0.0000   0.0000   0.6782
  -8.000   0.4154   0.08108   0.07660  -0.1648  0.7291  0.0223  -1.0215   0.0000   0.0000   0.0000   0.6690
  -7.750   0.4239   0.07927   0.07475  -0.1651  0.7196  0.0229  -1.0292   0.0000   0.0000   0.0000   0.6607
  -7.500   0.4308   0.07747   0.07290  -0.1658  0.7112  0.0232  -1.0345   0.0000   0.0000   0.0000   0.6550
  -7.250   0.4394   0.07559   0.07097  -0.1660  0.7034  0.0234  -1.0423   0.0000   0.0000   0.0000   0.6467
  -7.000   0.4489   0.07387   0.06924  -0.1658  0.6957  0.0238  -1.0518   0.0000   0.0000   0.0000   0.6373
  -6.750   0.4584   0.07217   0.06747  -0.1661  0.6893  0.0243  -1.0603   0.0000   0.0000   0.0000   0.6292
  -6.500   0.4654   0.07048   0.06580  -0.1660  0.6824  0.0250  -1.0666   0.0000   0.0000   0.0000   0.6226
  -6.250   0.4693   0.06880   0.06408  -0.1666  0.6769  0.0255  -1.0687   0.0000   0.0000   0.0000   0.6200
  -6.000   0.4781   0.06707   0.06236  -0.1658  0.6704  0.0258  -1.0792   0.0000   0.0000   0.0000   0.6108
  -5.750   0.4868   0.06553   0.06077  -0.1655  0.6654  0.0265  -1.0885   0.0000   0.0000   0.0000   0.6032
  -5.500   0.4896   0.06417   0.05945  -0.1645  0.6595  0.0273  -1.0927   0.0000   0.0000   0.0000   0.5984
  -5.250   0.4962   0.06236   0.05762  -0.1660  0.6547  0.0279  -1.0961   0.0000   0.0000   0.0000   0.5961
  -5.000   0.5076   0.06071   0.05597  -0.1656  0.6496  0.0283  -1.1078   0.0000   0.0000   0.0000   0.5870
  -4.750   0.5187   0.05904   0.05429  -0.1663  0.6444  0.0291  -1.1171   0.0000   0.0000   0.0000   0.5804
  -4.500   0.5355   0.05660   0.05180  -0.1716  0.6401  0.0302  -1.1266   0.0000   0.0000   0.0000   0.5794
  -4.250   0.5466   0.05497   0.05021  -0.1706  0.6349  0.0306  -1.1352   0.0000   0.0000   0.0000   0.5703
  -4.000   0.5637   0.05314   0.04834  -0.1724  0.6305  0.0315  -1.1488   0.0000   0.0000   0.0000   0.5631
  -3.750   0.5891   0.05026   0.04544  -0.1788  0.6263  0.0329  -1.1619   0.0000   0.0000   0.0000   0.5600
  -3.500   0.6058   0.04865   0.04382  -0.1794  0.6216  0.0338  -1.1771   0.0000   0.0000   0.0000   0.5518
  -3.250   0.6415   0.04542   0.04050  -0.1877  0.6176  0.0357  -1.1967   0.0000   0.0000   0.0000   0.5475
  -3.000   0.6659   0.04351   0.03859  -0.1905  0.6131  0.0374  -1.2150   0.0000   0.0000   0.0000   0.5402
  -2.750   0.7013   0.04081   0.03583  -0.1968  0.6086  0.0399  -1.2374   0.0000   0.0000   0.0000   0.5341
  -2.500   0.7489   0.03764   0.03251  -0.2061  0.6048  0.0430  -1.2665   0.0000   0.0000   0.0000   0.5279
  -2.250   0.7981   0.03432   0.02911  -0.2154  0.6000  0.0468  -1.2962   0.0000   0.0000   0.0000   0.5219
  -2.000   0.8850   0.02857   0.02295  -0.2343  0.5955  0.0557  -1.3456   0.0000   0.0000   0.0000   0.5161
  -1.250   1.0706   0.01811   0.01067  -0.2607  0.5830  0.0403  -1.4690   0.0000   0.0000   0.0000   0.4934
  -1.000   1.1093   0.01706   0.00917  -0.2629  0.5791  0.0386  -1.5001   0.0000   0.0000   0.0000   0.4864
  -0.750   1.1398   0.01664   0.00864  -0.2635  0.5747  0.0405  -1.5271   0.0000   0.0000   0.0000   0.4800
  -0.500   1.1719   0.01622   0.00805  -0.2643  0.5709  0.0417  -1.5555   0.0000   0.0000   0.0000   0.4739
  -0.250   1.2021   0.01600   0.00778  -0.2648  0.5672  0.0448  -1.5844   0.0000   0.0000   0.0000   0.4682
   0.000   1.2313   0.01579   0.00758  -0.2651  0.5630  0.0479  -1.6125   0.0000   0.0000   0.0000   0.4627
   0.250   1.2621   0.01564   0.00743  -0.2658  0.5593  0.0534  -1.6423   0.0000   0.0000   0.0000   0.4576
   0.500   1.2920   0.01556   0.00736  -0.2663  0.5553  0.0617  -1.6713   0.0000   0.0000   0.0000   0.4526
   0.750   1.3223   0.01537   0.00730  -0.2669  0.5510  0.0980  -1.7005   0.0000   0.0000   0.0000   0.4479
   1.000   1.3527   0.01532   0.00750  -0.2677  0.5475  0.2503  -1.7305   0.0000   0.0000   0.0000   0.4435
   1.250   1.3802   0.01545   0.00765  -0.2677  0.5440  0.2890  -1.7586   0.0000   0.0000   0.0000   0.4391
   1.500   1.4069   0.01552   0.00782  -0.2676  0.5400  0.3334  -1.7866   0.0000   0.0000   0.0000   0.4349
   1.750   1.4357   0.01552   0.00798  -0.2680  0.5365  0.4141  -1.8166   0.0000   0.0000   0.0000   0.4309
   2.000   1.4630   0.01528   0.00839  -0.2680  0.5331  0.7646  -1.8477   0.0000   0.0000   0.0000   0.4269
   2.250   1.4813   0.01514   0.00841  -0.2659  0.5291  1.0000  -1.8722   0.0000   0.0000   0.0000   0.4227
   2.500   1.5086   0.01535   0.00850  -0.2658  0.5255  1.0000  -1.9038   0.0000   0.0000   0.0000   0.4190
   2.750   1.5364   0.01560   0.00863  -0.2659  0.5223  1.0000  -1.9358   0.0000   0.0000   0.0000   0.4154
   3.000   1.5610   0.01582   0.00883  -0.2653  0.5183  1.0000  -1.9650   0.0000   0.0000   0.0000   0.4118
   3.250   1.5876   0.01604   0.00898  -0.2652  0.5148  1.0000  -1.9961   0.0000   0.0000   0.0000   0.4084
   3.500   1.6159   0.01631   0.00913  -0.2654  0.5118  1.0000  -2.0289   0.0000   0.0000   0.0000   0.4051
   3.750   1.6388   0.01653   0.00939  -0.2646  0.5077  1.0000  -2.0567   0.0000   0.0000   0.0000   0.4019
   4.000   1.6643   0.01676   0.00958  -0.2642  0.5041  1.0000  -2.0872   0.0000   0.0000   0.0000   0.3987
   4.250   1.6922   0.01703   0.00974  -0.2644  0.5010  1.0000  -2.1199   0.0000   0.0000   0.0000   0.3957
   4.500   1.7141   0.01727   0.01004  -0.2634  0.4970  1.0000  -2.1471   0.0000   0.0000   0.0000   0.3926
   4.750   1.7387   0.01752   0.01026  -0.2629  0.4933  1.0000  -2.1769   0.0000   0.0000   0.0000   0.3897
   5.000   1.7658   0.01778   0.01045  -0.2630  0.4903  1.0000  -2.2091   0.0000   0.0000   0.0000   0.3869
   5.250   1.7878   0.01807   0.01078  -0.2620  0.4866  1.0000  -2.2398   0.0000   0.0000   0.0000   0.3841
   5.500   1.8111   0.01833   0.01106  -0.2613  0.4830  1.0000  -2.2725   0.0000   0.0000   0.0000   0.3813
   5.750   1.8373   0.01860   0.01126  -0.2612  0.4799  1.0000  -2.3079   0.0000   0.0000   0.0000   0.3787
   6.000   1.8595   0.01892   0.01162  -0.2604  0.4765  1.0000  -2.3394   0.0000   0.0000   0.0000   0.3760
   6.250   1.8815   0.01922   0.01196  -0.2595  0.4729  1.0000  -2.3708   0.0000   0.0000   0.0000   0.3734
   6.500   1.9064   0.01951   0.01221  -0.2591  0.4699  1.0000  -2.4052   0.0000   0.0000   0.0000   0.3709
   6.750   1.9298   0.01984   0.01256  -0.2585  0.4667  1.0000  -2.4385   0.0000   0.0000   0.0000   0.3685
   7.000   1.9490   0.02017   0.01296  -0.2571  0.4628  1.0000  -2.4695   0.0000   0.0000   0.0000   0.3659
   7.250   1.9723   0.02047   0.01324  -0.2565  0.4595  1.0000  -2.5048   0.0000   0.0000   0.0000   0.3635
   7.500   1.9956   0.02082   0.01360  -0.2560  0.4563  1.0000  -2.5398   0.0000   0.0000   0.0000   0.3612
   7.750   2.0120   0.02120   0.01407  -0.2541  0.4524  1.0000  -2.5682   0.0000   0.0000   0.0000   0.3587
   8.000   2.0333   0.02152   0.01440  -0.2531  0.4490  1.0000  -2.6017   0.0000   0.0000   0.0000   0.3564
   8.250   2.0560   0.02189   0.01476  -0.2525  0.4459  1.0000  -2.6364   0.0000   0.0000   0.0000   0.3542
   8.500   2.0690   0.02231   0.01531  -0.2500  0.4423  1.0000  -2.6613   0.0000   0.0000   0.0000   0.3517
   8.750   2.0885   0.02269   0.01571  -0.2488  0.4391  1.0000  -2.6928   0.0000   0.0000   0.0000   0.3494
   9.250   2.1227   0.02358   0.01672  -0.2455  0.4326  1.0000  -2.7509   0.0000   0.0000   0.0000   0.3449
   9.500   2.1387   0.02402   0.01721  -0.2437  0.4291  1.0000  -2.7791   0.0000   0.0000   0.0000   0.3426
   9.750   2.1637   0.02438   0.01754  -0.2436  0.4261  1.0000  -2.8165   0.0000   0.0000   0.0000   0.3407
  10.000   2.1707   0.02503   0.01835  -0.2402  0.4225  1.0000  -2.8506   0.0000   0.0000   0.0000   0.3382
  10.250   2.1853   0.02558   0.01896  -0.2382  0.4192  1.0000  -2.9064   0.0000   0.0000   0.0000   0.3360
  10.500   2.2081   0.02596   0.01933  -0.2378  0.4160  1.0000  -2.9767   0.0000   0.0000   0.0000   0.3341
  10.750   2.2107   0.02677   0.02030  -0.2338  0.4117  1.0000  -3.0175   0.0000   0.0000   0.0000   0.3316
  11.000   2.2213   0.02736   0.02092  -0.2313  0.4071  1.0000  -3.0710   0.0000   0.0000   0.0000   0.3294
  11.250   2.2262   0.02819   0.02184  -0.2279  0.4023  1.0000  -3.1158   0.0000   0.0000   0.0000   0.3271
  11.500   2.2315   0.02902   0.02275  -0.2247  0.3973  1.0000  -3.1700   0.0000   0.0000   0.0000   0.3248
  11.750   2.2386   0.02992   0.02372  -0.2219  0.3928  1.0000  -3.2307   0.0000   0.0000   0.0000   0.3226
  12.000   2.2430   0.03099   0.02490  -0.2189  0.3884  1.0000  -3.2900   0.0000   0.0000   0.0000   0.3205
  12.250   2.2603   0.03160   0.02550  -0.2178  0.3848  1.0000  -3.3760   0.0000   0.0000   0.0000   0.3186
  12.500   2.2558   0.03320   0.02729  -0.2138  0.3801  1.0000  -3.4197   0.0000   0.0000   0.0000   0.3165
  12.750   2.2641   0.03424   0.02837  -0.2116  0.3757  1.0000  -3.4893   0.0000   0.0000   0.0000   0.3145
  13.000   2.2635   0.03587   0.03015  -0.2086  0.3710  1.0000  -3.5431   0.0000   0.0000   0.0000   0.3126
  13.250   2.2676   0.03728   0.03163  -0.2062  0.3665  1.0000  -3.6103   0.0000   0.0000   0.0000   0.3107
  13.500   2.2691   0.03898   0.03344  -0.2037  0.3620  1.0000  -3.6718   0.0000   0.0000   0.0000   0.3089
  13.750   2.2694   0.04081   0.03537  -0.2013  0.3571  1.0000  -3.7311   0.0000   0.0000   0.0000   0.3072
  14.000   2.2689   0.04284   0.03750  -0.1990  0.3520  1.0000  -3.7885   0.0000   0.0000   0.0000   0.3055
  14.250   2.2672   0.04507   0.03982  -0.1967  0.3467  1.0000  -3.8523   0.0000   0.0000   0.0000   0.3039
  14.500   2.2629   0.04766   0.04254  -0.1945  0.3412  1.0000  -3.9183   0.0000   0.0000   0.0000   0.3024
  14.750   2.2633   0.04990   0.04483  -0.1928  0.3360  1.0000  -3.9981   0.0000   0.0000   0.0000   0.3009
  15.000   2.2547   0.05320   0.04829  -0.1908  0.3301  1.0000  -4.0516   0.0000   0.0000   0.0000   0.2997
  15.250   2.2534   0.05582   0.05096  -0.1893  0.3246  1.0000  -4.1268   0.0000   0.0000   0.0000   0.2983
  15.500   2.2442   0.05944   0.05472  -0.1877  0.3184  1.0000  -4.1786   0.0000   0.0000   0.0000   0.2972
  15.750   2.2364   0.06303   0.05843  -0.1864  0.3121  1.0000  -4.2379   0.0000   0.0000   0.0000   0.2962
  16.000   2.2313   0.06637   0.06182  -0.1852  0.3059  1.0000  -4.3089   0.0000   0.0000   0.0000   0.2951
  16.250   2.2200   0.07064   0.06621  -0.1841  0.2990  1.0000  -4.3593   0.0000   0.0000   0.0000   0.2943
  16.500   2.2085   0.07505   0.07074  -0.1833  0.2918  1.0000  -4.4088   0.0000   0.0000   0.0000   0.2936
  16.750   2.1973   0.07950   0.07527  -0.1826  0.2844  1.0000  -4.4592   0.0000   0.0000   0.0000   0.2929
  17.000   2.1854   0.08413   0.07998  -0.1820  0.2766  1.0000  -4.5146   0.0000   0.0000   0.0000   0.2923
  17.250   2.1722   0.08903   0.08495  -0.1817  0.2683  1.0000  -4.5920   0.0000   0.0000   0.0000   0.2919
  17.500   2.1579   0.09417   0.09015  -0.1815  0.2595  1.0000  -4.6626   0.0000   0.0000   0.0000   0.2916
  17.750   2.1432   0.09944   0.09549  -0.1816  0.2503  1.0000  -4.7327   0.0000   0.0000   0.0000   0.2914
  18.000   2.1276   0.10492   0.10104  -0.1819  0.2404  1.0000  -4.7970   0.0000   0.0000   0.0000   0.2914
  18.250   2.1116   0.11050   0.10668  -0.1825  0.2298  1.0000  -4.8564   0.0000   0.0000   0.0000   0.2915
  18.500   2.0959   0.11604   0.11223  -0.1832  0.2187  1.0000  -4.9152   0.0000   0.0000   0.0000   0.2917
  18.750   2.0799   0.12159   0.11776  -0.1842  0.2075  1.0000  -4.9696   0.0000   0.0000   0.0000   0.2921
  19.000   2.0641   0.12721   0.12340  -0.1854  0.1952  1.0000  -5.0211   0.0000   0.0000   0.0000   0.2925
  19.250   2.0485   0.13278   0.12894  -0.1868  0.1833  1.0000  -5.0714   0.0000   0.0000   0.0000   0.2931
  19.500   2.0340   0.13815   0.13429  -0.1884  0.1720  1.0000  -5.1254   0.0000   0.0000   0.0000   0.2937
  19.750   2.0209   0.14333   0.13944  -0.1901  0.1613  1.0000  -5.1851   0.0000   0.0000   0.0000   0.2944
  20.000   2.0093   0.14824   0.14431  -0.1918  0.1518  1.0000  -5.2526   0.0000   0.0000   0.0000   0.2950
  20.250   1.9997   0.15282   0.14886  -0.1935  0.1433  1.0000  -5.3310   0.0000   0.0000   0.0000   0.2955
  20.500   1.9918   0.15711   0.15313  -0.1953  0.1355  1.0000  -5.4198   0.0000   0.0000   0.0000   0.2960
  20.750   1.9854   0.16118   0.15720  -0.1971  0.1281  1.0000  -5.5173   0.0000   0.0000   0.0000   0.2964
  21.000   1.9799   0.16510   0.16113  -0.1989  0.1214  1.0000  -5.6202   0.0000   0.0000   0.0000   0.2968
  21.250   1.9753   0.16884   0.16489  -0.2007  0.1151  1.0000  -5.7293   0.0000   0.0000   0.0000   0.2971
  21.500   1.9715   0.17245   0.16852  -0.2026  0.1091  1.0000  -5.8434   0.0000   0.0000   0.0000   0.2974
  21.750   1.9680   0.17600   0.17209  -0.2045  0.1035  1.0000  -5.9592   0.0000   0.0000   0.0000   0.2978
  22.000   1.9646   0.17948   0.17557  -0.2064  0.0984  1.0000  -6.0762   0.0000   0.0000   0.0000   0.2981
  22.250   1.9615   0.18292   0.17901  -0.2084  0.0935  1.0000  -6.1955   0.0000   0.0000   0.0000   0.2984
  22.500   1.9590   0.18628   0.18241  -0.2104  0.0885  1.0000  -6.3183   0.0000   0.0000   0.0000   0.2987
  22.750   1.9567   0.18961   0.18579  -0.2125  0.0838  1.0000  -6.4425   0.0000   0.0000   0.0000   0.2991
  23.000   1.9546   0.19287   0.18908  -0.2146  0.0794  1.0000  -6.5685   0.0000   0.0000   0.0000   0.2994
  23.250   1.9523   0.19615   0.19238  -0.2168  0.0752  1.0000  -6.6926   0.0000   0.0000   0.0000   0.2998
  23.500   1.9498   0.19939   0.19560  -0.2190  0.0714  1.0000  -6.8159   0.0000   0.0000   0.0000   0.3002
  23.750   1.9481   0.20263   0.19892  -0.2213  0.0674  1.0000  -6.9440   0.0000   0.0000   0.0000   0.3005
  24.000   1.9463   0.20578   0.20212  -0.2236  0.0637  1.0000  -7.0712   0.0000   0.0000   0.0000   0.3009
  24.250   1.9445   0.20894   0.20530  -0.2260  0.0603  1.0000  -7.1988   0.0000   0.0000   0.0000   0.3014
  24.500   1.9425   0.21206   0.20843  -0.2284  0.0572  1.0000  -7.3329   0.0000   0.0000   0.0000   0.3018
  24.750   1.9408   0.21523   0.21166  -0.2308  0.0540  1.0000  -7.4679   0.0000   0.0000   0.0000   0.3023
  25.000   1.9394   0.21822   0.21471  -0.2333  0.0510  1.0000  -7.6073   0.0000   0.0000   0.0000   0.3027


