xflr5 v6.59

 Calculated polar for: TKV2008

 1 1 Reynolds number fixed          Mach number fixed         

 xtrf =   1.000 (top)        1.000 (bottom)
 Mach =   0.000     Re =     0.250 e 6     Ncrit =   9.000

  alpha     CL        CD       CDp       Cm    Top Xtr Bot Xtr   Cpmin    Chinge    XCp    
 ------- -------- --------- --------- -------- ------- ------- -------- --------- ---------
 -25.000  -0.4648   0.26885   0.26494   0.0025  1.0000  0.0118  -1.3195   0.0000   0.0000   0.0000   0.2137
 -24.750  -0.4574   0.26669   0.26279   0.0009  1.0000  0.0119  -1.3161   0.0000   0.0000   0.0000   0.2104
 -23.750  -0.4279   0.25790   0.25403  -0.0052  1.0000  0.0120  -1.3318   0.0000   0.0000   0.0000   0.1960
 -23.500  -0.4207   0.25575   0.25189  -0.0065  1.0000  0.0121  -1.3111   0.0000   0.0000   0.0000   0.1926
 -23.250  -0.4134   0.25363   0.24978  -0.0079  1.0000  0.0122  -1.2989   0.0000   0.0000   0.0000   0.1889
 -23.000  -0.4060   0.25149   0.24765  -0.0092  1.0000  0.0123  -1.2899   0.0000   0.0000   0.0000   0.1852
 -22.750  -0.3986   0.24938   0.24555  -0.0106  1.0000  0.0124  -1.2826   0.0000   0.0000   0.0000   0.1812
 -22.500  -0.3912   0.24721   0.24339  -0.0119  1.0000  0.0126  -1.2764   0.0000   0.0000   0.0000   0.1772
 -19.500  -0.3038   0.22064   0.21698  -0.0259  1.0000  0.0138  -1.2769   0.0000   0.0000   0.0000   0.1194
 -19.250  -0.2969   0.21846   0.21482  -0.0267  1.0000  0.0139  -1.2579   0.0000   0.0000   0.0000   0.1142
 -19.000  -0.2899   0.21629   0.21267  -0.0276  1.0000  0.0140  -1.2443   0.0000   0.0000   0.0000   0.1087
 -18.750  -0.2830   0.21414   0.21054  -0.0284  1.0000  0.0141  -1.2337   0.0000   0.0000   0.0000   0.1030
 -18.500  -0.2762   0.21198   0.20839  -0.0293  1.0000  0.0143  -1.2248   0.0000   0.0000   0.0000   0.0972
 -18.250  -0.2695   0.20981   0.20624  -0.0300  1.0000  0.0145  -1.2167   0.0000   0.0000   0.0000   0.0913
 -18.000  -0.2628   0.20763   0.20409  -0.0308  1.0000  0.0147  -1.2098   0.0000   0.0000   0.0000   0.0852
 -17.750  -0.2563   0.20546   0.20193  -0.0315  1.0000  0.0149  -1.2041   0.0000   0.0000   0.0000   0.0791
 -17.500  -0.2500   0.20327   0.19978  -0.0321  1.0000  0.0150  -1.1998   0.0000   0.0000   0.0000   0.0729
 -17.250  -0.2437   0.20111   0.19763  -0.0327  1.0000  0.0152  -1.2004   0.0000   0.0000   0.0000   0.0667
 -17.000  -0.2377   0.19897   0.19552  -0.0333  1.0000  0.0153  -1.2104   0.0000   0.0000   0.0000   0.0605
 -16.000  -0.2161   0.19046   0.18713  -0.0350  1.0000  0.0155  -1.2587   0.0000   0.0000   0.0000   0.0372
 -15.750  -0.2112   0.18842   0.18512  -0.0350  1.0000  0.0156  -1.2373   0.0000   0.0000   0.0000   0.0331
 -15.500  -0.2069   0.18649   0.18323  -0.0350  1.0000  0.0158  -1.2240   0.0000   0.0000   0.0000   0.0296
 -15.250  -0.2030   0.18462   0.18140  -0.0349  1.0000  0.0159  -1.2154   0.0000   0.0000   0.0000   0.0270
 -15.000  -0.2000   0.18286   0.17968  -0.0347  1.0000  0.0161  -1.2100   0.0000   0.0000   0.0000   0.0259
 -14.750  -0.1939   0.18072   0.17757  -0.0353  0.9996  0.0163  -1.2043   0.0000   0.0000   0.0000   0.0164
 -13.500  -0.0870   0.16140   0.15821  -0.0603  0.9870  0.0174  -1.1810   0.0000   0.0000   0.0000  -0.5590
 -13.250  -0.0652   0.15763   0.15443  -0.0651  0.9851  0.0176  -1.1506   0.0000   0.0000   0.0000  -0.9039
 -13.000  -0.0455   0.15388   0.15068  -0.0692  0.9812  0.0179  -1.1342   0.0000   0.0000   0.0000  -1.4913
 -12.750  -0.0239   0.15009   0.14688  -0.0740  0.9791  0.0182  -1.1231   0.0000   0.0000   0.0000  -3.2684
 -12.500  -0.0051   0.14633   0.14312  -0.0779  0.9745  0.0186  -1.1182   0.0000   0.0000   0.0000  -16.9429
 -12.250   0.0154   0.14251   0.13929  -0.0824  0.9714  0.0189  -1.1201   0.0000   0.0000   0.0000   6.2445
 -12.000   0.0343   0.13876   0.13554  -0.0865  0.9665  0.0191  -1.1383   0.0000   0.0000   0.0000   3.0658
 -11.750   0.0509   0.13520   0.13199  -0.0903  0.9599  0.0192  -1.1760   0.0000   0.0000   0.0000   2.2199
 -11.000   0.0912   0.12558   0.12240  -0.0957  0.9226  0.0200  -1.0855   0.0000   0.0000   0.0000   1.4026
 -10.750   0.1089   0.12206   0.11886  -0.0989  0.9112  0.0204  -1.0736   0.0000   0.0000   0.0000   1.2440
 -10.500   0.1313   0.11813   0.11489  -0.1036  0.9010  0.0209  -1.0712   0.0000   0.0000   0.0000   1.1102
 -10.250   0.1583   0.11384   0.11054  -0.1104  0.8916  0.0212  -1.1150   0.0000   0.0000   0.0000   1.0069
 -10.000   0.1936   0.10902   0.10565  -0.1179  0.8820  0.0217  -1.0467   0.0000   0.0000   0.0000   0.9079
  -9.750   0.2368   0.10386   0.10037  -0.1283  0.8722  0.0224  -1.0230   0.0000   0.0000   0.0000   0.8329
  -9.500   0.2875   0.09831   0.09466  -0.1416  0.8600  0.0232  -1.0412   0.0000   0.0000   0.0000   0.7772
  -9.250   0.3352   0.09324   0.08938  -0.1533  0.8411  0.0236  -1.0187   0.0000   0.0000   0.0000   0.7379
  -9.000   0.3669   0.08981   0.08573  -0.1599  0.8174  0.0242  -0.9830   0.0000   0.0000   0.0000   0.7138
  -8.750   0.3847   0.08740   0.08313  -0.1628  0.7967  0.0248  -0.9952   0.0000   0.0000   0.0000   0.6994
  -8.500   0.3964   0.08539   0.08098  -0.1644  0.7798  0.0253  -1.0031   0.0000   0.0000   0.0000   0.6895
  -8.250   0.4057   0.08349   0.07898  -0.1656  0.7661  0.0256  -1.0297   0.0000   0.0000   0.0000   0.6817
  -8.000   0.4171   0.08153   0.07694  -0.1658  0.7541  0.0259  -1.0200   0.0000   0.0000   0.0000   0.6698
  -7.750   0.4269   0.07977   0.07511  -0.1661  0.7434  0.0265  -1.0291   0.0000   0.0000   0.0000   0.6602
  -7.500   0.4359   0.07801   0.07329  -0.1665  0.7338  0.0272  -1.0370   0.0000   0.0000   0.0000   0.6520
  -7.250   0.4434   0.07629   0.07151  -0.1673  0.7254  0.0277  -1.0422   0.0000   0.0000   0.0000   0.6464
  -7.000   0.4520   0.07444   0.06963  -0.1673  0.7170  0.0280  -1.0503   0.0000   0.0000   0.0000   0.6382
  -6.750   0.4618   0.07275   0.06790  -0.1672  0.7092  0.0286  -1.0597   0.0000   0.0000   0.0000   0.6291
  -6.500   0.4710   0.07105   0.06615  -0.1677  0.7026  0.0296  -1.0674   0.0000   0.0000   0.0000   0.6219
  -6.250   0.4729   0.06958   0.06470  -0.1679  0.6955  0.0302  -1.0684   0.0000   0.0000   0.0000   0.6201
  -6.000   0.4862   0.06768   0.06273  -0.1677  0.6898  0.0308  -1.0821   0.0000   0.0000   0.0000   0.6090
  -5.750   0.4915   0.06623   0.06131  -0.1669  0.6831  0.0316  -1.0886   0.0000   0.0000   0.0000   0.6027
  -5.500   0.4967   0.06481   0.05985  -0.1669  0.6779  0.0325  -1.0933   0.0000   0.0000   0.0000   0.5985
  -5.250   0.5030   0.06314   0.05822  -0.1676  0.6720  0.0329  -1.0979   0.0000   0.0000   0.0000   0.5947
  -5.000   0.5155   0.06144   0.05648  -0.1676  0.6669  0.0336  -1.1098   0.0000   0.0000   0.0000   0.5859
  -4.750   0.5269   0.05974   0.05478  -0.1688  0.6617  0.0347  -1.1182   0.0000   0.0000   0.0000   0.5801
  -4.500   0.5402   0.05765   0.05269  -0.1719  0.6564  0.0356  -1.1251   0.0000   0.0000   0.0000   0.5771
  -4.250   0.5557   0.05593   0.05092  -0.1724  0.6518  0.0365  -1.1386   0.0000   0.0000   0.0000   0.5684
  -4.000   0.5777   0.05332   0.04832  -0.1792  0.6464  0.0383  -1.1479   0.0000   0.0000   0.0000   0.5675
  -3.750   0.5926   0.05176   0.04671  -0.1782  0.6421  0.0391  -1.1642   0.0000   0.0000   0.0000   0.5574
  -3.500   0.6231   0.04882   0.04375  -0.1861  0.6373  0.0414  -1.1795   0.0000   0.0000   0.0000   0.5544
  -3.250   0.6394   0.04738   0.04230  -0.1858  0.6327  0.0429  -1.1956   0.0000   0.0000   0.0000   0.5456
  -3.000   0.6744   0.04473   0.03953  -0.1925  0.6288  0.0458  -1.2175   0.0000   0.0000   0.0000   0.5397
  -2.750   0.7092   0.04192   0.03671  -0.1992  0.6237  0.0487  -1.2381   0.0000   0.0000   0.0000   0.5345
  -2.500   0.7528   0.03894   0.03362  -0.2074  0.6192  0.0524  -1.2648   0.0000   0.0000   0.0000   0.5284
  -2.250   0.7984   0.03614   0.03069  -0.2153  0.6150  0.0568  -1.2945   0.0000   0.0000   0.0000   0.5219
  -2.000   0.8821   0.03105   0.02521  -0.2338  0.6098  0.0692  -1.3416   0.0000   0.0000   0.0000   0.5164
  -1.250   1.0663   0.02000   0.01242  -0.2604  0.5969  0.0472  -1.4624   0.0000   0.0000   0.0000   0.4941
  -1.000   1.1064   0.01894   0.01093  -0.2630  0.5933  0.0462  -1.4946   0.0000   0.0000   0.0000   0.4872
  -0.750   1.1387   0.01828   0.01004  -0.2639  0.5886  0.0465  -1.5217   0.0000   0.0000   0.0000   0.4807
  -0.500   1.1708   0.01781   0.00935  -0.2646  0.5844  0.0481  -1.5502   0.0000   0.0000   0.0000   0.4745
  -0.250   1.2035   0.01754   0.00895  -0.2656  0.5810  0.0513  -1.5808   0.0000   0.0000   0.0000   0.4687
   0.000   1.2311   0.01729   0.00878  -0.2656  0.5764  0.0550  -1.6074   0.0000   0.0000   0.0000   0.4633
   0.250   1.2618   0.01711   0.00862  -0.2663  0.5724  0.0611  -1.6366   0.0000   0.0000   0.0000   0.4581
   0.500   1.2947   0.01701   0.00847  -0.2674  0.5690  0.0730  -1.6679   0.0000   0.0000   0.0000   0.4531
   0.750   1.3253   0.01669   0.00859  -0.2682  0.5642  0.2001  -1.6965   0.0000   0.0000   0.0000   0.4485
   1.000   1.3533   0.01680   0.00873  -0.2683  0.5603  0.2743  -1.7247   0.0000   0.0000   0.0000   0.4440
   1.250   1.3826   0.01694   0.00885  -0.2687  0.5570  0.3191  -1.7547   0.0000   0.0000   0.0000   0.4396
   1.500   1.4081   0.01700   0.00911  -0.2685  0.5526  0.3783  -1.7814   0.0000   0.0000   0.0000   0.4354
   1.750   1.4382   0.01689   0.00940  -0.2692  0.5489  0.5605  -1.8123   0.0000   0.0000   0.0000   0.4314
   2.000   1.4575   0.01653   0.00945  -0.2670  0.5461  1.0000  -1.8380   0.0000   0.0000   0.0000   0.4270
   2.250   1.4817   0.01677   0.00966  -0.2664  0.5417  1.0000  -1.8662   0.0000   0.0000   0.0000   0.4231
   2.500   1.5087   0.01699   0.00978  -0.2663  0.5378  1.0000  -1.8973   0.0000   0.0000   0.0000   0.4194
   2.750   1.5384   0.01725   0.00986  -0.2668  0.5347  1.0000  -1.9309   0.0000   0.0000   0.0000   0.4158
   3.000   1.5617   0.01752   0.01014  -0.2660  0.5305  1.0000  -1.9586   0.0000   0.0000   0.0000   0.4122
   3.250   1.5881   0.01776   0.01033  -0.2658  0.5268  1.0000  -1.9893   0.0000   0.0000   0.0000   0.4088
   3.500   1.6171   0.01802   0.01045  -0.2662  0.5238  1.0000  -2.0226   0.0000   0.0000   0.0000   0.4056
   3.750   1.6403   0.01832   0.01078  -0.2654  0.5197  1.0000  -2.0504   0.0000   0.0000   0.0000   0.4023
   4.000   1.6654   0.01858   0.01101  -0.2650  0.5159  1.0000  -2.0802   0.0000   0.0000   0.0000   0.3991
   4.250   1.6938   0.01884   0.01116  -0.2652  0.5128  1.0000  -2.1131   0.0000   0.0000   0.0000   0.3961
   4.500   1.7167   0.01916   0.01151  -0.2645  0.5089  1.0000  -2.1408   0.0000   0.0000   0.0000   0.3931
   4.750   1.7405   0.01944   0.01179  -0.2639  0.5050  1.0000  -2.1696   0.0000   0.0000   0.0000   0.3902
   5.000   1.7683   0.01970   0.01197  -0.2640  0.5019  1.0000  -2.2035   0.0000   0.0000   0.0000   0.3874
   5.250   1.7911   0.02004   0.01234  -0.2633  0.4982  1.0000  -2.2351   0.0000   0.0000   0.0000   0.3846
   5.500   1.8137   0.02035   0.01269  -0.2625  0.4944  1.0000  -2.2668   0.0000   0.0000   0.0000   0.3818
   5.750   1.8406   0.02062   0.01290  -0.2625  0.4913  1.0000  -2.3026   0.0000   0.0000   0.0000   0.3792
   6.000   1.8641   0.02098   0.01327  -0.2619  0.4879  1.0000  -2.3352   0.0000   0.0000   0.0000   0.3766
   6.250   1.8849   0.02134   0.01370  -0.2608  0.4841  1.0000  -2.3651   0.0000   0.0000   0.0000   0.3740
   6.500   1.9105   0.02163   0.01397  -0.2606  0.4810  1.0000  -2.3999   0.0000   0.0000   0.0000   0.3715
   6.750   1.9364   0.02198   0.01429  -0.2605  0.4780  1.0000  -2.4360   0.0000   0.0000   0.0000   0.3691
   7.000   1.9538   0.02239   0.01482  -0.2588  0.4740  1.0000  -2.4648   0.0000   0.0000   0.0000   0.3665
   7.250   1.9777   0.02270   0.01512  -0.2583  0.4706  1.0000  -2.5004   0.0000   0.0000   0.0000   0.3642
   7.500   2.0047   0.02302   0.01540  -0.2585  0.4676  1.0000  -2.5391   0.0000   0.0000   0.0000   0.3619
   7.750   2.0192   0.02350   0.01602  -0.2563  0.4636  1.0000  -2.5650   0.0000   0.0000   0.0000   0.3594
   8.000   2.0416   0.02383   0.01637  -0.2555  0.4601  1.0000  -2.5993   0.0000   0.0000   0.0000   0.3571
   8.250   2.0694   0.02415   0.01664  -0.2559  0.4571  1.0000  -2.6390   0.0000   0.0000   0.0000   0.3550
   8.500   2.0805   0.02470   0.01736  -0.2531  0.4531  1.0000  -2.6615   0.0000   0.0000   0.0000   0.3525
   8.750   2.1014   0.02510   0.01779  -0.2521  0.4498  1.0000  -2.6941   0.0000   0.0000   0.0000   0.3503
   9.000   2.1307   0.02542   0.01807  -0.2528  0.4470  1.0000  -2.7354   0.0000   0.0000   0.0000   0.3484
   9.250   2.1392   0.02606   0.01888  -0.2496  0.4432  1.0000  -2.7550   0.0000   0.0000   0.0000   0.3459
   9.500   2.1555   0.02650   0.01940  -0.2478  0.4397  1.0000  -2.7832   0.0000   0.0000   0.0000   0.3437
   9.750   2.1848   0.02680   0.01964  -0.2485  0.4366  1.0000  -2.8333   0.0000   0.0000   0.0000   0.3419
  10.000   2.1872   0.02751   0.02053  -0.2442  0.4328  1.0000  -2.8651   0.0000   0.0000   0.0000   0.3392
  10.250   2.2008   0.02805   0.02116  -0.2420  0.4295  1.0000  -2.9215   0.0000   0.0000   0.0000   0.3370
  10.500   2.2289   0.02838   0.02147  -0.2425  0.4266  1.0000  -2.9995   0.0000   0.0000   0.0000   0.3353
  10.750   2.2304   0.02920   0.02245  -0.2383  0.4227  1.0000  -3.0385   0.0000   0.0000   0.0000   0.3327
  11.000   2.2386   0.02979   0.02312  -0.2352  0.4184  1.0000  -3.0884   0.0000   0.0000   0.0000   0.3304
  11.250   2.2508   0.03030   0.02366  -0.2329  0.4138  1.0000  -3.1482   0.0000   0.0000   0.0000   0.3282
  11.500   2.2479   0.03123   0.02472  -0.2282  0.4087  1.0000  -3.1912   0.0000   0.0000   0.0000   0.3257
  11.750   2.2615   0.03175   0.02525  -0.2263  0.4040  1.0000  -3.2650   0.0000   0.0000   0.0000   0.3236
  12.000   2.2555   0.03305   0.02672  -0.2215  0.3992  1.0000  -3.3062   0.0000   0.0000   0.0000   0.3212
  12.250   2.2758   0.03346   0.02712  -0.2207  0.3953  1.0000  -3.3983   0.0000   0.0000   0.0000   0.3193
  12.500   2.2677   0.03512   0.02898  -0.2160  0.3910  1.0000  -3.4351   0.0000   0.0000   0.0000   0.3170
  12.750   2.2766   0.03603   0.02995  -0.2138  0.3866  1.0000  -3.5060   0.0000   0.0000   0.0000   0.3151
  13.000   2.2763   0.03749   0.03154  -0.2106  0.3821  1.0000  -3.5623   0.0000   0.0000   0.0000   0.3130
  13.250   2.2767   0.03898   0.03313  -0.2076  0.3774  1.0000  -3.6218   0.0000   0.0000   0.0000   0.3111
  13.500   2.2809   0.04036   0.03459  -0.2052  0.3730  1.0000  -3.6896   0.0000   0.0000   0.0000   0.3092
  13.750   2.2749   0.04245   0.03684  -0.2020  0.3680  1.0000  -3.7352   0.0000   0.0000   0.0000   0.3074
  14.000   2.2801   0.04389   0.03834  -0.2000  0.3634  1.0000  -3.8064   0.0000   0.0000   0.0000   0.3056
  14.250   2.2701   0.04654   0.04115  -0.1968  0.3581  1.0000  -3.8520   0.0000   0.0000   0.0000   0.3039
  14.500   2.2700   0.04856   0.04324  -0.1947  0.3530  1.0000  -3.9302   0.0000   0.0000   0.0000   0.3023
  14.750   2.2615   0.05143   0.04624  -0.1923  0.3473  1.0000  -3.9846   0.0000   0.0000   0.0000   0.3009
  15.000   2.2539   0.05441   0.04935  -0.1902  0.3417  1.0000  -4.0416   0.0000   0.0000   0.0000   0.2995
  15.250   2.2527   0.05686   0.05186  -0.1885  0.3362  1.0000  -4.1171   0.0000   0.0000   0.0000   0.2981
  15.500   2.2369   0.06103   0.05621  -0.1865  0.3300  1.0000  -4.1494   0.0000   0.0000   0.0000   0.2971
  15.750   2.2343   0.06385   0.05909  -0.1852  0.3242  1.0000  -4.2211   0.0000   0.0000   0.0000   0.2958
  16.000   2.2215   0.06798   0.06336  -0.1838  0.3177  1.0000  -4.2662   0.0000   0.0000   0.0000   0.2949
  16.250   2.2067   0.07256   0.06808  -0.1827  0.3109  1.0000  -4.3049   0.0000   0.0000   0.0000   0.2942
  16.500   2.1984   0.07643   0.07202  -0.1818  0.3042  1.0000  -4.3643   0.0000   0.0000   0.0000   0.2934
  16.750   2.1929   0.07996   0.07560  -0.1811  0.2972  1.0000  -4.4336   0.0000   0.0000   0.0000   0.2925
  17.000   2.1730   0.08564   0.08144  -0.1806  0.2893  1.0000  -4.4528   0.0000   0.0000   0.0000   0.2922
  17.250   2.1572   0.09087   0.08678  -0.1803  0.2813  1.0000  -4.5016   0.0000   0.0000   0.0000   0.2919
  17.500   2.1430   0.09596   0.09196  -0.1803  0.2728  1.0000  -4.5703   0.0000   0.0000   0.0000   0.2916
  17.750   2.1290   0.10108   0.09715  -0.1804  0.2639  1.0000  -4.6390   0.0000   0.0000   0.0000   0.2915
  18.000   2.1156   0.10617   0.10230  -0.1808  0.2545  1.0000  -4.7095   0.0000   0.0000   0.0000   0.2914
  18.250   2.1021   0.11129   0.10747  -0.1813  0.2446  1.0000  -4.7818   0.0000   0.0000   0.0000   0.2914
  18.500   2.0887   0.11645   0.11265  -0.1821  0.2342  1.0000  -4.8523   0.0000   0.0000   0.0000   0.2915
  18.750   2.0748   0.12168   0.11792  -0.1830  0.2234  1.0000  -4.9177   0.0000   0.0000   0.0000   0.2918
  19.000   2.0602   0.12709   0.12334  -0.1842  0.2118  1.0000  -4.9758   0.0000   0.0000   0.0000   0.2922
  19.250   2.0470   0.13224   0.12848  -0.1856  0.2001  1.0000  -5.0401   0.0000   0.0000   0.0000   0.2926
  19.500   2.0343   0.13731   0.13352  -0.1870  0.1885  1.0000  -5.1051   0.0000   0.0000   0.0000   0.2931
  19.750   2.0218   0.14238   0.13858  -0.1887  0.1769  1.0000  -5.1681   0.0000   0.0000   0.0000   0.2937
  20.000   2.0109   0.14711   0.14324  -0.1904  0.1665  1.0000  -5.2410   0.0000   0.0000   0.0000   0.2942
  20.250   2.0015   0.15164   0.14774  -0.1921  0.1568  1.0000  -5.3203   0.0000   0.0000   0.0000   0.2947
  20.500   1.9934   0.15593   0.15201  -0.1938  0.1478  1.0000  -5.4074   0.0000   0.0000   0.0000   0.2952
  20.750   1.9868   0.15998   0.15604  -0.1956  0.1396  1.0000  -5.5035   0.0000   0.0000   0.0000   0.2956
  21.000   1.9813   0.16383   0.15988  -0.1974  0.1321  1.0000  -5.6066   0.0000   0.0000   0.0000   0.2960
  21.250   1.9765   0.16756   0.16360  -0.1992  0.1252  1.0000  -5.7136   0.0000   0.0000   0.0000   0.2963
  21.500   1.9725   0.17117   0.16720  -0.2010  0.1188  1.0000  -5.8266   0.0000   0.0000   0.0000   0.2966
  21.750   1.9693   0.17458   0.17059  -0.2028  0.1128  1.0000  -5.9454   0.0000   0.0000   0.0000   0.2968
  22.000   1.9662   0.17803   0.17406  -0.2047  0.1070  1.0000  -6.0635   0.0000   0.0000   0.0000   0.2971
  22.250   1.9635   0.18140   0.17747  -0.2067  0.1016  1.0000  -6.1842   0.0000   0.0000   0.0000   0.2974
  22.500   1.9615   0.18463   0.18073  -0.2086  0.0964  1.0000  -6.3101   0.0000   0.0000   0.0000   0.2977
  22.750   1.9597   0.18778   0.18390  -0.2106  0.0916  1.0000  -6.4388   0.0000   0.0000   0.0000   0.2979
  23.000   1.9585   0.19080   0.18691  -0.2125  0.0871  1.0000  -6.5727   0.0000   0.0000   0.0000   0.2981
  23.250   1.9567   0.19400   0.19014  -0.2146  0.0827  1.0000  -6.7004   0.0000   0.0000   0.0000   0.2984
  23.500   1.9546   0.19724   0.19345  -0.2168  0.0783  1.0000  -6.8241   0.0000   0.0000   0.0000   0.2987
  23.750   1.9532   0.20030   0.19654  -0.2190  0.0743  1.0000  -6.9550   0.0000   0.0000   0.0000   0.2990
  24.000   1.9520   0.20326   0.19950  -0.2212  0.0706  1.0000  -7.0902   0.0000   0.0000   0.0000   0.2993
  24.250   1.9503   0.20640   0.20267  -0.2235  0.0669  1.0000  -7.2186   0.0000   0.0000   0.0000   0.2997
  24.500   1.9480   0.20964   0.20599  -0.2260  0.0633  1.0000  -7.3395   0.0000   0.0000   0.0000   0.3002
  24.750   1.9463   0.21273   0.20912  -0.2284  0.0600  1.0000  -7.4744   0.0000   0.0000   0.0000   0.3006
  25.000   1.9449   0.21570   0.21210  -0.2308  0.0570  1.0000  -7.6162   0.0000   0.0000   0.0000   0.3010


