xflr5 v6.59

 Calculated polar for: TKV2008

 1 1 Reynolds number fixed          Mach number fixed         

 xtrf =   1.000 (top)        1.000 (bottom)
 Mach =   0.000     Re =     0.575 e 6     Ncrit =   9.000

  alpha     CL        CD       CDp       Cm    Top Xtr Bot Xtr   Cpmin    Chinge    XCp    
 ------- -------- --------- --------- -------- ------- ------- -------- --------- ---------
 -25.000  -0.4734   0.26894   0.26638   0.0057  1.0000  0.0072  -1.3669   0.0000   0.0000   0.0000   0.2213
 -24.750  -0.4661   0.26665   0.26409   0.0041  1.0000  0.0073  -1.3675   0.0000   0.0000   0.0000   0.2181
 -18.500  -0.2862   0.21101   0.20866  -0.0262  1.0000  0.0088  -1.3779   0.0000   0.0000   0.0000   0.1132
 -18.250  -0.2796   0.20881   0.20648  -0.0268  1.0000  0.0089  -1.3399   0.0000   0.0000   0.0000   0.1087
 -18.000  -0.2731   0.20671   0.20439  -0.0275  1.0000  0.0089  -1.3109   0.0000   0.0000   0.0000   0.1038
 -17.750  -0.2668   0.20461   0.20231  -0.0281  1.0000  0.0090  -1.2886   0.0000   0.0000   0.0000   0.0988
 -17.500  -0.2606   0.20252   0.20024  -0.0287  1.0000  0.0091  -1.2705   0.0000   0.0000   0.0000   0.0937
 -17.250  -0.2545   0.20041   0.19814  -0.0293  1.0000  0.0091  -1.2553   0.0000   0.0000   0.0000   0.0886
 -17.000  -0.2486   0.19834   0.19609  -0.0298  1.0000  0.0092  -1.2420   0.0000   0.0000   0.0000   0.0836
 -16.750  -0.2332   0.19517   0.19292  -0.0331  0.9992  0.0094  -1.2323   0.0000   0.0000   0.0000   0.0586
 -16.500  -0.2143   0.19165   0.18939  -0.0376  0.9979  0.0095  -1.2240   0.0000   0.0000   0.0000   0.0211
 -16.250  -0.1951   0.18811   0.18585  -0.0421  0.9967  0.0097  -1.2171   0.0000   0.0000   0.0000  -0.0244
 -16.000  -0.1766   0.18450   0.18223  -0.0463  0.9952  0.0099  -1.2125   0.0000   0.0000   0.0000  -0.0768
 -15.750  -0.1582   0.18090   0.17863  -0.0504  0.9936  0.0101  -1.2130   0.0000   0.0000   0.0000  -0.1411
 -14.500  -0.0665   0.16246   0.16016  -0.0714  0.9861  0.0104  -1.2649   0.0000   0.0000   0.0000  -0.9958
 -14.250  -0.0467   0.15894   0.15664  -0.0757  0.9852  0.0105  -1.2107   0.0000   0.0000   0.0000  -1.6131
 -14.000  -0.0311   0.15565   0.15335  -0.0787  0.9826  0.0106  -1.1757   0.0000   0.0000   0.0000  -2.6452
 -13.750  -0.0124   0.15213   0.14982  -0.0827  0.9808  0.0108  -1.1458   0.0000   0.0000   0.0000  -7.3525
 -13.500   0.0079   0.14846   0.14615  -0.0871  0.9795  0.0109  -1.1324   0.0000   0.0000   0.0000  12.6533
 -13.250   0.0241   0.14505   0.14274  -0.0903  0.9766  0.0111  -1.1269   0.0000   0.0000   0.0000   4.4664
 -13.000   0.0422   0.14146   0.13915  -0.0940  0.9741  0.0113  -1.1233   0.0000   0.0000   0.0000   2.7421
 -12.750   0.0630   0.13767   0.13534  -0.0986  0.9726  0.0116  -1.1229   0.0000   0.0000   0.0000   1.9921
 -12.500   0.0751   0.13449   0.13218  -0.1005  0.9670  0.0118  -1.1390   0.0000   0.0000   0.0000   1.7344
 -11.500   0.1247   0.12170   0.11935  -0.1083  0.9074  0.0121  -1.1970   0.0000   0.0000   0.0000   1.2028
 -11.250   0.1693   0.11597   0.11354  -0.1194  0.8975  0.0123  -1.1169   0.0000   0.0000   0.0000   1.0188
 -11.000   0.2276   0.10936   0.10677  -0.1349  0.8849  0.0126  -1.0542   0.0000   0.0000   0.0000   0.8920
 -10.750   0.2954   0.10242   0.09956  -0.1533  0.8601  0.0132  -1.0060   0.0000   0.0000   0.0000   0.8092
 -10.500   0.3269   0.09862   0.09539  -0.1608  0.8130  0.0136  -1.0364   0.0000   0.0000   0.0000   0.7783
 -10.250   0.3345   0.09656   0.09312  -0.1616  0.7814  0.0137  -1.1266   0.0000   0.0000   0.0000   0.7682
 -10.000   0.3412   0.09461   0.09104  -0.1618  0.7598  0.0137  -1.1592   0.0000   0.0000   0.0000   0.7577
  -9.750   0.3498   0.09278   0.08910  -0.1616  0.7425  0.0138  -1.1031   0.0000   0.0000   0.0000   0.7437
  -9.500   0.3582   0.09102   0.08725  -0.1616  0.7283  0.0140  -1.0697   0.0000   0.0000   0.0000   0.7314
  -9.250   0.3667   0.08924   0.08540  -0.1617  0.7161  0.0142  -1.0476   0.0000   0.0000   0.0000   0.7199
  -9.000   0.3752   0.08742   0.08353  -0.1620  0.7052  0.0144  -1.0345   0.0000   0.0000   0.0000   0.7091
  -8.750   0.3837   0.08555   0.08161  -0.1622  0.6954  0.0148  -1.0307   0.0000   0.0000   0.0000   0.6989
  -8.500   0.3920   0.08364   0.07966  -0.1625  0.6866  0.0151  -1.0386   0.0000   0.0000   0.0000   0.6894
  -8.250   0.3997   0.08165   0.07763  -0.1629  0.6786  0.0153  -1.0748   0.0000   0.0000   0.0000   0.6812
  -8.000   0.4056   0.07963   0.07559  -0.1637  0.6715  0.0155  -1.1650   0.0000   0.0000   0.0000   0.6761
  -7.750   0.4141   0.07769   0.07361  -0.1637  0.6649  0.0155  -1.1491   0.0000   0.0000   0.0000   0.6667
  -7.500   0.4238   0.07594   0.07186  -0.1636  0.6581  0.0156  -1.0878   0.0000   0.0000   0.0000   0.6562
  -7.250   0.4325   0.07427   0.07016  -0.1636  0.6521  0.0158  -1.0514   0.0000   0.0000   0.0000   0.6472
  -6.500   0.4555   0.06914   0.06500  -0.1633  0.6355  0.0168  -1.0658   0.0000   0.0000   0.0000   0.6245
  -6.250   0.4593   0.06730   0.06315  -0.1631  0.6307  0.0172  -1.0830   0.0000   0.0000   0.0000   0.6201
  -6.000   0.4581   0.06554   0.06141  -0.1623  0.6261  0.0173  -1.1999   0.0000   0.0000   0.0000   0.6186
  -5.750   0.4660   0.06407   0.05994  -0.1611  0.6210  0.0175  -1.1245   0.0000   0.0000   0.0000   0.6090
  -5.500   0.4709   0.06276   0.05861  -0.1599  0.6166  0.0177  -1.0911   0.0000   0.0000   0.0000   0.6020
  -5.250   0.4781   0.06121   0.05709  -0.1596  0.6119  0.0180  -1.0944   0.0000   0.0000   0.0000   0.5954
  -5.000   0.4864   0.05951   0.05538  -0.1599  0.6076  0.0185  -1.1020   0.0000   0.0000   0.0000   0.5893
  -4.750   0.4963   0.05704   0.05289  -0.1627  0.6040  0.0192  -1.2300   0.0000   0.0000   0.0000   0.5876
  -4.500   0.5075   0.05504   0.05092  -0.1635  0.5998  0.0193  -1.2238   0.0000   0.0000   0.0000   0.5811
  -4.250   0.5202   0.05354   0.04941  -0.1637  0.5958  0.0197  -1.1485   0.0000   0.0000   0.0000   0.5727
  -4.000   0.5362   0.05167   0.04750  -0.1655  0.5920  0.0203  -1.1385   0.0000   0.0000   0.0000   0.5659
  -3.750   0.5630   0.04781   0.04365  -0.1735  0.5881  0.0213  -1.2956   0.0000   0.0000   0.0000   0.5645
  -3.500   0.5787   0.04639   0.04222  -0.1736  0.5840  0.0215  -1.1903   0.0000   0.0000   0.0000   0.5556
  -3.250   0.6036   0.04430   0.04007  -0.1771  0.5804  0.0222  -1.1833   0.0000   0.0000   0.0000   0.5482
  -3.000   0.6482   0.03992   0.03565  -0.1880  0.5764  0.0235  -1.2381   0.0000   0.0000   0.0000   0.5440
  -2.750   0.6768   0.03803   0.03373  -0.1914  0.5724  0.0242  -1.2276   0.0000   0.0000   0.0000   0.5361
  -2.500   0.8211   0.02591   0.02105  -0.2296  0.5686  0.0302  -1.5152   0.0000   0.0000   0.0000   0.5320
  -2.250   0.8386   0.02611   0.02134  -0.2280  0.5645  0.0304  -1.3154   0.0000   0.0000   0.0000   0.5237
  -1.750   1.0058   0.01575   0.00937  -0.2576  0.5564  0.0280  -1.5735   0.0000   0.0000   0.0000   0.5068
  -1.500   1.0444   0.01453   0.00790  -0.2600  0.5523  0.0265  -1.5275   0.0000   0.0000   0.0000   0.4992
  -1.250   1.0806   0.01366   0.00669  -0.2618  0.5486  0.0260  -1.4994   0.0000   0.0000   0.0000   0.4920
  -1.000   1.1120   0.01331   0.00622  -0.2625  0.5452  0.0266  -1.5094   0.0000   0.0000   0.0000   0.4854
  -0.750   1.1424   0.01300   0.00580  -0.2630  0.5412  0.0277  -1.5370   0.0000   0.0000   0.0000   0.4790
  -0.500   1.1717   0.01281   0.00561  -0.2634  0.5374  0.0295  -1.5643   0.0000   0.0000   0.0000   0.4731
  -0.250   1.2013   0.01271   0.00545  -0.2638  0.5338  0.0316  -1.5923   0.0000   0.0000   0.0000   0.4674
   0.000   1.2303   0.01257   0.00532  -0.2641  0.5299  0.0341  -1.6210   0.0000   0.0000   0.0000   0.4620
   0.250   1.2591   0.01251   0.00524  -0.2643  0.5263  0.0374  -1.6497   0.0000   0.0000   0.0000   0.4568
   0.500   1.2882   0.01252   0.00519  -0.2646  0.5231  0.0420  -1.6787   0.0000   0.0000   0.0000   0.4518
   1.000   1.3469   0.01225   0.00527  -0.2656  0.5158  0.1796  -1.7371   0.0000   0.0000   0.0000   0.4426
   1.250   1.3740   0.01237   0.00539  -0.2655  0.5125  0.2266  -1.7652   0.0000   0.0000   0.0000   0.4382
   1.500   1.4004   0.01243   0.00550  -0.2653  0.5087  0.2549  -1.7927   0.0000   0.0000   0.0000   0.4339
   1.750   1.4267   0.01250   0.00561  -0.2650  0.5050  0.2834  -1.8211   0.0000   0.0000   0.0000   0.4298
   2.000   1.4535   0.01260   0.00576  -0.2650  0.5017  0.3328  -1.8513   0.0000   0.0000   0.0000   0.4259
   2.250   1.4818   0.01252   0.00601  -0.2654  0.4982  0.4959  -1.8837   0.0000   0.0000   0.0000   0.4222
   2.500   1.5070   0.01233   0.00633  -0.2649  0.4947  0.7785  -1.9140   0.0000   0.0000   0.0000   0.4184
   3.000   1.5542   0.01244   0.00652  -0.2632  0.4881  1.0000  -1.9722   0.0000   0.0000   0.0000   0.4111
   3.250   1.5793   0.01259   0.00665  -0.2627  0.4844  1.0000  -2.0024   0.0000   0.0000   0.0000   0.4076
   3.500   1.6040   0.01278   0.00678  -0.2622  0.4809  1.0000  -2.0325   0.0000   0.0000   0.0000   0.4042
   3.750   1.6285   0.01299   0.00695  -0.2616  0.4776  1.0000  -2.0624   0.0000   0.0000   0.0000   0.4009
   4.000   1.6522   0.01315   0.00710  -0.2609  0.4739  1.0000  -2.0916   0.0000   0.0000   0.0000   0.3977
   4.250   1.6759   0.01336   0.00727  -0.2602  0.4705  1.0000  -2.1210   0.0000   0.0000   0.0000   0.3946
   4.500   1.6998   0.01361   0.00747  -0.2596  0.4674  1.0000  -2.1505   0.0000   0.0000   0.0000   0.3916
   4.750   1.7227   0.01378   0.00766  -0.2587  0.4639  1.0000  -2.1792   0.0000   0.0000   0.0000   0.3886
   5.000   1.7454   0.01400   0.00786  -0.2579  0.4605  1.0000  -2.2079   0.0000   0.0000   0.0000   0.3856
   5.250   1.7689   0.01429   0.00809  -0.2572  0.4575  1.0000  -2.2373   0.0000   0.0000   0.0000   0.3828
   5.500   1.7910   0.01448   0.00832  -0.2562  0.4542  1.0000  -2.2690   0.0000   0.0000   0.0000   0.3800
   5.750   1.8130   0.01471   0.00856  -0.2553  0.4509  1.0000  -2.3008   0.0000   0.0000   0.0000   0.3772
   6.000   1.8351   0.01500   0.00881  -0.2544  0.4479  1.0000  -2.3328   0.0000   0.0000   0.0000   0.3745
   6.250   1.8567   0.01526   0.00909  -0.2534  0.4446  1.0000  -2.3643   0.0000   0.0000   0.0000   0.3719
   6.500   1.8775   0.01550   0.00936  -0.2522  0.4409  1.0000  -2.3951   0.0000   0.0000   0.0000   0.3693
   6.750   1.8981   0.01581   0.00965  -0.2511  0.4376  1.0000  -2.4260   0.0000   0.0000   0.0000   0.3667
   7.000   1.9187   0.01611   0.00997  -0.2499  0.4342  1.0000  -2.4583   0.0000   0.0000   0.0000   0.3642
   7.250   1.9387   0.01640   0.01030  -0.2487  0.4306  1.0000  -2.4905   0.0000   0.0000   0.0000   0.3617
   7.500   1.9586   0.01674   0.01063  -0.2475  0.4275  1.0000  -2.5226   0.0000   0.0000   0.0000   0.3592
   7.750   1.9787   0.01710   0.01101  -0.2463  0.4245  1.0000  -2.5549   0.0000   0.0000   0.0000   0.3568
   8.000   1.9980   0.01743   0.01139  -0.2450  0.4211  1.0000  -2.5864   0.0000   0.0000   0.0000   0.3545
   8.250   2.0169   0.01780   0.01178  -0.2437  0.4179  1.0000  -2.6176   0.0000   0.0000   0.0000   0.3521
   8.500   2.0359   0.01824   0.01220  -0.2424  0.4149  1.0000  -2.6490   0.0000   0.0000   0.0000   0.3498
   8.750   2.0538   0.01861   0.01266  -0.2409  0.4114  1.0000  -2.6790   0.0000   0.0000   0.0000   0.3475
   9.000   2.0714   0.01904   0.01312  -0.2394  0.4081  1.0000  -2.7091   0.0000   0.0000   0.0000   0.3453
   9.250   2.0896   0.01955   0.01360  -0.2381  0.4052  1.0000  -2.7396   0.0000   0.0000   0.0000   0.3431
   9.500   2.1062   0.01999   0.01414  -0.2365  0.4018  1.0000  -2.7683   0.0000   0.0000   0.0000   0.3409
   9.750   2.1221   0.02049   0.01470  -0.2348  0.3983  1.0000  -2.7966   0.0000   0.0000   0.0000   0.3387
  10.000   2.1372   0.02109   0.01529  -0.2330  0.3945  1.0000  -2.8243   0.0000   0.0000   0.0000   0.3365
  10.250   2.1506   0.02166   0.01596  -0.2310  0.3898  1.0000  -2.8696   0.0000   0.0000   0.0000   0.3343
  10.500   2.1631   0.02237   0.01666  -0.2289  0.3855  1.0000  -2.9247   0.0000   0.0000   0.0000   0.3321
  10.750   2.1759   0.02305   0.01743  -0.2268  0.3809  1.0000  -2.9800   0.0000   0.0000   0.0000   0.3300
  11.000   2.1872   0.02384   0.01826  -0.2247  0.3763  1.0000  -3.0338   0.0000   0.0000   0.0000   0.3279
  11.250   2.1991   0.02465   0.01913  -0.2227  0.3720  1.0000  -3.0883   0.0000   0.0000   0.0000   0.3259
  11.500   2.2103   0.02552   0.02006  -0.2207  0.3676  1.0000  -3.1440   0.0000   0.0000   0.0000   0.3239
  11.750   2.2200   0.02652   0.02110  -0.2186  0.3634  1.0000  -3.2086   0.0000   0.0000   0.0000   0.3219
  12.000   2.2301   0.02752   0.02218  -0.2166  0.3586  1.0000  -3.2780   0.0000   0.0000   0.0000   0.3199
  12.250   2.2377   0.02875   0.02343  -0.2144  0.3546  1.0000  -3.3448   0.0000   0.0000   0.0000   0.3180
  12.500   2.2477   0.02984   0.02463  -0.2126  0.3500  1.0000  -3.4165   0.0000   0.0000   0.0000   0.3161
  12.750   2.2536   0.03128   0.02609  -0.2104  0.3455  1.0000  -3.4806   0.0000   0.0000   0.0000   0.3143
  13.000   2.2614   0.03263   0.02755  -0.2086  0.3402  1.0000  -3.5519   0.0000   0.0000   0.0000   0.3125
  13.250   2.2647   0.03440   0.02934  -0.2064  0.3354  1.0000  -3.6170   0.0000   0.0000   0.0000   0.3108
  13.500   2.2712   0.03599   0.03104  -0.2047  0.3297  1.0000  -3.6893   0.0000   0.0000   0.0000   0.3091
  13.750   2.2737   0.03798   0.03307  -0.2027  0.3248  1.0000  -3.7530   0.0000   0.0000   0.0000   0.3075
  14.000   2.2779   0.03990   0.03508  -0.2010  0.3193  1.0000  -3.8209   0.0000   0.0000   0.0000   0.3059
  14.250   2.2792   0.04215   0.03739  -0.1992  0.3141  1.0000  -3.8995   0.0000   0.0000   0.0000   0.3044
  14.500   2.2801   0.04452   0.03984  -0.1976  0.3084  1.0000  -3.9802   0.0000   0.0000   0.0000   0.3029
  14.750   2.2802   0.04705   0.04244  -0.1960  0.3028  1.0000  -4.0593   0.0000   0.0000   0.0000   0.3016
  15.000   2.2757   0.05013   0.04556  -0.1943  0.2970  1.0000  -4.1257   0.0000   0.0000   0.0000   0.3003
  15.250   2.2741   0.05301   0.04854  -0.1929  0.2901  1.0000  -4.2052   0.0000   0.0000   0.0000   0.2990
  15.500   2.2692   0.05633   0.05193  -0.1915  0.2833  1.0000  -4.2776   0.0000   0.0000   0.0000   0.2979
  15.750   2.2617   0.06004   0.05570  -0.1901  0.2763  1.0000  -4.3419   0.0000   0.0000   0.0000   0.2968
  16.000   2.2518   0.06414   0.05986  -0.1889  0.2688  1.0000  -4.3985   0.0000   0.0000   0.0000   0.2959
  16.250   2.2416   0.06838   0.06415  -0.1878  0.2608  1.0000  -4.4542   0.0000   0.0000   0.0000   0.2950
  16.500   2.2291   0.07303   0.06886  -0.1868  0.2522  1.0000  -4.5019   0.0000   0.0000   0.0000   0.2943
  16.750   2.2144   0.07806   0.07393  -0.1860  0.2428  1.0000  -4.5418   0.0000   0.0000   0.0000   0.2937
  17.000   2.1980   0.08344   0.07936  -0.1854  0.2324  1.0000  -4.6051   0.0000   0.0000   0.0000   0.2933
  17.250   2.1801   0.08911   0.08506  -0.1849  0.2214  1.0000  -4.6641   0.0000   0.0000   0.0000   0.2930
  17.500   2.1598   0.09523   0.09119  -0.1847  0.2102  1.0000  -4.7088   0.0000   0.0000   0.0000   0.2929
  17.750   2.1392   0.10146   0.09742  -0.1848  0.1985  1.0000  -4.7492   0.0000   0.0000   0.0000   0.2930
  18.000   2.1196   0.10760   0.10358  -0.1852  0.1863  1.0000  -4.7917   0.0000   0.0000   0.0000   0.2932
  18.250   2.0985   0.11401   0.10997  -0.1858  0.1744  1.0000  -4.8221   0.0000   0.0000   0.0000   0.2936
  18.500   2.0803   0.12002   0.11598  -0.1867  0.1630  1.0000  -4.8648   0.0000   0.0000   0.0000   0.2940
  18.750   2.0636   0.12582   0.12176  -0.1877  0.1527  1.0000  -4.9126   0.0000   0.0000   0.0000   0.2944
  19.000   2.0488   0.13131   0.12725  -0.1890  0.1435  1.0000  -4.9689   0.0000   0.0000   0.0000   0.2949
  19.250   2.0364   0.13643   0.13236  -0.1903  0.1355  1.0000  -5.0372   0.0000   0.0000   0.0000   0.2954
  19.750   2.0181   0.14564   0.14159  -0.1931  0.1207  1.0000  -5.2099   0.0000   0.0000   0.0000   0.2960
  20.000   2.0110   0.14989   0.14585  -0.1945  0.1143  1.0000  -5.3080   0.0000   0.0000   0.0000   0.2963
  20.250   2.0054   0.15389   0.14988  -0.1960  0.1081  1.0000  -5.4151   0.0000   0.0000   0.0000   0.2965
  20.500   2.0001   0.15784   0.15384  -0.1976  0.1024  1.0000  -5.5236   0.0000   0.0000   0.0000   0.2968
  20.750   1.9956   0.16162   0.15765  -0.1992  0.0971  1.0000  -5.6372   0.0000   0.0000   0.0000   0.2970
  21.000   1.9912   0.16540   0.16145  -0.2009  0.0919  1.0000  -5.7510   0.0000   0.0000   0.0000   0.2972
  21.250   1.9869   0.16914   0.16521  -0.2027  0.0869  1.0000  -5.8652   0.0000   0.0000   0.0000   0.2975
  21.500   1.9828   0.17280   0.16888  -0.2045  0.0822  1.0000  -5.9808   0.0000   0.0000   0.0000   0.2978
  21.750   1.9809   0.17614   0.17225  -0.2062  0.0773  1.0000  -6.1123   0.0000   0.0000   0.0000   0.2980
  22.000   1.9779   0.17961   0.17574  -0.2081  0.0730  1.0000  -6.2360   0.0000   0.0000   0.0000   0.2982
  22.250   1.9755   0.18295   0.17911  -0.2100  0.0688  1.0000  -6.3646   0.0000   0.0000   0.0000   0.2985
  22.500   1.9731   0.18629   0.18247  -0.2119  0.0647  1.0000  -6.4929   0.0000   0.0000   0.0000   0.2987
  22.750   1.9703   0.18970   0.18590  -0.2140  0.0610  1.0000  -6.6170   0.0000   0.0000   0.0000   0.2991
  23.000   1.9676   0.19306   0.18927  -0.2161  0.0574  1.0000  -6.7429   0.0000   0.0000   0.0000   0.2994
  23.250   1.9664   0.19614   0.19239  -0.2181  0.0540  1.0000  -6.8811   0.0000   0.0000   0.0000   0.2996
  23.500   1.9650   0.19926   0.19555  -0.2202  0.0509  1.0000  -7.0205   0.0000   0.0000   0.0000   0.2999
  23.750   1.9638   0.20230   0.19863  -0.2223  0.0481  1.0000  -7.1676   0.0000   0.0000   0.0000   0.3001
  24.000   1.9619   0.20548   0.20184  -0.2245  0.0454  1.0000  -7.3077   0.0000   0.0000   0.0000   0.3005
  24.250   1.9605   0.20854   0.20493  -0.2267  0.0428  1.0000  -7.4528   0.0000   0.0000   0.0000   0.3008
  24.500   1.9596   0.21149   0.20792  -0.2289  0.0403  1.0000  -7.6032   0.0000   0.0000   0.0000   0.3010
  24.750   1.9578   0.21460   0.21107  -0.2313  0.0380  1.0000  -7.7446   0.0000   0.0000   0.0000   0.3014
  25.000   1.9557   0.21774   0.21425  -0.2337  0.0358  1.0000  -7.8827   0.0000   0.0000   0.0000   0.3019


