xflr5 v6.59

 Calculated polar for: TKV2008

 1 1 Reynolds number fixed          Mach number fixed         

 xtrf =   1.000 (top)        1.000 (bottom)
 Mach =   0.000     Re =     0.470 e 6     Ncrit =   9.000

  alpha     CL        CD       CDp       Cm    Top Xtr Bot Xtr   Cpmin    Chinge    XCp    
 ------- -------- --------- --------- -------- ------- ------- -------- --------- ---------
 -25.000  -0.4715   0.26904   0.26621   0.0049  1.0000  0.0079  -1.3409   0.0000   0.0000   0.0000   0.2195
 -24.750  -0.4642   0.26691   0.26408   0.0033  1.0000  0.0080  -1.3297   0.0000   0.0000   0.0000   0.2164
 -24.500  -0.4569   0.26476   0.26194   0.0018  1.0000  0.0082  -1.3189   0.0000   0.0000   0.0000   0.2132
 -24.250  -0.4496   0.26259   0.25978   0.0003  1.0000  0.0083  -1.3147   0.0000   0.0000   0.0000   0.2099
 -24.000  -0.4422   0.26040   0.25759  -0.0011  1.0000  0.0084  -1.3105   0.0000   0.0000   0.0000   0.2066
 -23.750  -0.4348   0.25821   0.25540  -0.0026  1.0000  0.0085  -1.3067   0.0000   0.0000   0.0000   0.2032
 -23.500  -0.4274   0.25599   0.25319  -0.0040  1.0000  0.0086  -1.3034   0.0000   0.0000   0.0000   0.1997
 -23.250  -0.4200   0.25378   0.25098  -0.0054  1.0000  0.0087  -1.3044   0.0000   0.0000   0.0000   0.1960
 -23.000  -0.4126   0.25150   0.24871  -0.0068  1.0000  0.0087  -1.3148   0.0000   0.0000   0.0000   0.1923
 -22.750  -0.4051   0.24922   0.24644  -0.0082  1.0000  0.0087  -1.3264   0.0000   0.0000   0.0000   0.1885
 -21.750  -0.3757   0.24009   0.23734  -0.0135  1.0000  0.0088  -1.3832   0.0000   0.0000   0.0000   0.1718
 -21.500  -0.3686   0.23790   0.23515  -0.0146  1.0000  0.0089  -1.3501   0.0000   0.0000   0.0000   0.1681
 -21.250  -0.3614   0.23575   0.23302  -0.0158  1.0000  0.0089  -1.3246   0.0000   0.0000   0.0000   0.1640
 -21.000  -0.3541   0.23363   0.23091  -0.0169  1.0000  0.0090  -1.3043   0.0000   0.0000   0.0000   0.1598
 -20.750  -0.3469   0.23147   0.22876  -0.0180  1.0000  0.0091  -1.2871   0.0000   0.0000   0.0000   0.1553
 -20.500  -0.3396   0.22933   0.22663  -0.0191  1.0000  0.0092  -1.2718   0.0000   0.0000   0.0000   0.1508
 -20.250  -0.3324   0.22716   0.22447  -0.0202  1.0000  0.0093  -1.2633   0.0000   0.0000   0.0000   0.1461
 -20.000  -0.3252   0.22498   0.22230  -0.0212  1.0000  0.0094  -1.2586   0.0000   0.0000   0.0000   0.1413
 -19.750  -0.3181   0.22278   0.22012  -0.0222  1.0000  0.0095  -1.2552   0.0000   0.0000   0.0000   0.1364
 -19.500  -0.3110   0.22057   0.21791  -0.0232  1.0000  0.0096  -1.2530   0.0000   0.0000   0.0000   0.1314
 -19.250  -0.3040   0.21834   0.21570  -0.0242  1.0000  0.0098  -1.2514   0.0000   0.0000   0.0000   0.1263
 -19.000  -0.2971   0.21609   0.21347  -0.0250  1.0000  0.0099  -1.2505   0.0000   0.0000   0.0000   0.1211
 -18.750  -0.2903   0.21386   0.21125  -0.0259  1.0000  0.0100  -1.2506   0.0000   0.0000   0.0000   0.1158
 -16.750  -0.2403   0.19593   0.19345  -0.0313  1.0000  0.0104  -1.3184   0.0000   0.0000   0.0000   0.0720
 -16.500  -0.2348   0.19389   0.19143  -0.0315  1.0000  0.0105  -1.2889   0.0000   0.0000   0.0000   0.0678
 -16.250  -0.2257   0.19147   0.18903  -0.0329  0.9997  0.0106  -1.2654   0.0000   0.0000   0.0000   0.0550
 -16.000  -0.2061   0.18790   0.18545  -0.0375  0.9983  0.0107  -1.2408   0.0000   0.0000   0.0000   0.0142
 -13.500  -0.0168   0.15134   0.14884  -0.0802  0.9805  0.0121  -1.2016   0.0000   0.0000   0.0000  -5.1704
 -13.250   0.0038   0.14769   0.14519  -0.0846  0.9792  0.0122  -1.1641   0.0000   0.0000   0.0000  25.2456
 -13.000   0.0199   0.14435   0.14185  -0.0876  0.9756  0.0124  -1.1418   0.0000   0.0000   0.0000   5.2025
 -12.750   0.0398   0.14073   0.13822  -0.0918  0.9734  0.0127  -1.1248   0.0000   0.0000   0.0000   2.8303
 -12.500   0.0550   0.13738   0.13488  -0.0946  0.9689  0.0129  -1.1171   0.0000   0.0000   0.0000   2.1644
 -12.250   0.0744   0.13371   0.13120  -0.0986  0.9660  0.0131  -1.1115   0.0000   0.0000   0.0000   1.7191
 -11.000   0.1604   0.11570   0.11309  -0.1152  0.8956  0.0138  -1.1382   0.0000   0.0000   0.0000   1.0323
 -10.750   0.2114   0.10972   0.10698  -0.1282  0.8848  0.0141  -1.0622   0.0000   0.0000   0.0000   0.9067
 -10.500   0.2735   0.10313   0.10020  -0.1447  0.8679  0.0147  -1.0105   0.0000   0.0000   0.0000   0.8198
 -10.250   0.3265   0.09762   0.09436  -0.1585  0.8339  0.0153  -1.0236   0.0000   0.0000   0.0000   0.7709
 -10.000   0.3422   0.09504   0.09150  -0.1617  0.7975  0.0154  -1.1008   0.0000   0.0000   0.0000   0.7560
  -9.750   0.3509   0.09305   0.08935  -0.1621  0.7730  0.0155  -1.1037   0.0000   0.0000   0.0000   0.7438
  -9.000   0.3767   0.08773   0.08374  -0.1623  0.7266  0.0162  -1.0177   0.0000   0.0000   0.0000   0.7083
  -8.750   0.3850   0.08589   0.08183  -0.1625  0.7154  0.0165  -1.0146   0.0000   0.0000   0.0000   0.6982
  -8.500   0.3933   0.08401   0.07990  -0.1628  0.7053  0.0168  -1.0191   0.0000   0.0000   0.0000   0.6887
  -8.250   0.4012   0.08208   0.07793  -0.1632  0.6964  0.0171  -1.0464   0.0000   0.0000   0.0000   0.6803
  -8.000   0.4071   0.08015   0.07595  -0.1639  0.6885  0.0173  -1.1297   0.0000   0.0000   0.0000   0.6751
  -7.750   0.4160   0.07820   0.07399  -0.1639  0.6807  0.0174  -1.1022   0.0000   0.0000   0.0000   0.6653
  -7.500   0.4256   0.07646   0.07221  -0.1638  0.6738  0.0176  -1.0499   0.0000   0.0000   0.0000   0.6550
  -7.250   0.4344   0.07477   0.07049  -0.1639  0.6672  0.0178  -1.0441   0.0000   0.0000   0.0000   0.6462
  -7.000   0.4428   0.07305   0.06876  -0.1639  0.6610  0.0181  -1.0521   0.0000   0.0000   0.0000   0.6381
  -6.750   0.4504   0.07131   0.06700  -0.1639  0.6550  0.0186  -1.0592   0.0000   0.0000   0.0000   0.6308
  -6.500   0.4568   0.06950   0.06519  -0.1640  0.6496  0.0190  -1.0644   0.0000   0.0000   0.0000   0.6249
  -6.250   0.4571   0.06769   0.06339  -0.1639  0.6444  0.0192  -1.1530   0.0000   0.0000   0.0000   0.6238
  -6.000   0.4675   0.06605   0.06171  -0.1632  0.6395  0.0194  -1.0760   0.0000   0.0000   0.0000   0.6132
  -5.750   0.4731   0.06461   0.06030  -0.1622  0.6342  0.0197  -1.0838   0.0000   0.0000   0.0000   0.6060
  -5.500   0.4773   0.06325   0.05890  -0.1611  0.6295  0.0200  -1.0900   0.0000   0.0000   0.0000   0.5999
  -5.250   0.4838   0.06163   0.05731  -0.1610  0.6247  0.0205  -1.0965   0.0000   0.0000   0.0000   0.5942
  -5.000   0.4906   0.05927   0.05496  -0.1639  0.6202  0.0212  -1.2293   0.0000   0.0000   0.0000   0.5948
  -4.750   0.5028   0.05769   0.05334  -0.1632  0.6161  0.0214  -1.1358   0.0000   0.0000   0.0000   0.5844
  -4.500   0.5142   0.05610   0.05178  -0.1635  0.6115  0.0219  -1.1206   0.0000   0.0000   0.0000   0.5769
  -4.250   0.5283   0.05415   0.04981  -0.1653  0.6074  0.0228  -1.1306   0.0000   0.0000   0.0000   0.5709
  -4.000   0.5495   0.05113   0.04676  -0.1709  0.6038  0.0234  -1.2014   0.0000   0.0000   0.0000   0.5682
  -3.750   0.5641   0.04955   0.04520  -0.1712  0.5994  0.0238  -1.1543   0.0000   0.0000   0.0000   0.5599
  -3.500   0.5857   0.04743   0.04304  -0.1743  0.5954  0.0246  -1.1699   0.0000   0.0000   0.0000   0.5533
  -2.500   0.7499   0.03402   0.02933  -0.2079  0.5795  0.0306  -1.2669   0.0000   0.0000   0.0000   0.5297
  -2.250   0.8279   0.02853   0.02361  -0.2247  0.5751  0.0353  -1.3101   0.0000   0.0000   0.0000   0.5233
  -1.500   1.0425   0.01578   0.00879  -0.2597  0.5627  0.0302  -1.4838   0.0000   0.0000   0.0000   0.4994
  -1.250   1.0768   0.01498   0.00782  -0.2612  0.5590  0.0296  -1.4774   0.0000   0.0000   0.0000   0.4924
  -1.000   1.1102   0.01439   0.00702  -0.2623  0.5553  0.0297  -1.5062   0.0000   0.0000   0.0000   0.4856
  -0.750   1.1408   0.01399   0.00655  -0.2629  0.5513  0.0308  -1.5339   0.0000   0.0000   0.0000   0.4793
  -0.500   1.1708   0.01381   0.00626  -0.2634  0.5477  0.0330  -1.5614   0.0000   0.0000   0.0000   0.4733
  -0.250   1.2006   0.01363   0.00607  -0.2638  0.5440  0.0349  -1.5896   0.0000   0.0000   0.0000   0.4676
   0.000   1.2294   0.01349   0.00593  -0.2641  0.5398  0.0380  -1.6181   0.0000   0.0000   0.0000   0.4621
   0.500   1.2882   0.01336   0.00577  -0.2648  0.5327  0.0472  -1.6762   0.0000   0.0000   0.0000   0.4520
   0.750   1.3169   0.01329   0.00573  -0.2650  0.5289  0.0590  -1.7047   0.0000   0.0000   0.0000   0.4472
   1.000   1.3477   0.01310   0.00585  -0.2660  0.5255  0.2042  -1.7350   0.0000   0.0000   0.0000   0.4428
   1.250   1.3753   0.01322   0.00598  -0.2660  0.5222  0.2443  -1.7632   0.0000   0.0000   0.0000   0.4384
   1.500   1.4015   0.01329   0.00610  -0.2657  0.5183  0.2742  -1.7908   0.0000   0.0000   0.0000   0.4341
   1.750   1.4282   0.01336   0.00622  -0.2656  0.5146  0.3118  -1.8194   0.0000   0.0000   0.0000   0.4300
   2.000   1.4565   0.01343   0.00640  -0.2659  0.5113  0.3881  -1.8507   0.0000   0.0000   0.0000   0.4262
   2.250   1.4837   0.01320   0.00678  -0.2660  0.5074  0.6931  -1.8823   0.0000   0.0000   0.0000   0.4224
   2.750   1.5306   0.01321   0.00698  -0.2642  0.5010  1.0000  -1.9401   0.0000   0.0000   0.0000   0.4148
   3.000   1.5557   0.01336   0.00712  -0.2637  0.4973  1.0000  -1.9700   0.0000   0.0000   0.0000   0.4112
   3.250   1.5809   0.01354   0.00726  -0.2632  0.4937  1.0000  -2.0003   0.0000   0.0000   0.0000   0.4078
   3.500   1.6069   0.01377   0.00740  -0.2630  0.4905  1.0000  -2.0314   0.0000   0.0000   0.0000   0.4045
   3.750   1.6313   0.01396   0.00758  -0.2624  0.4869  1.0000  -2.0611   0.0000   0.0000   0.0000   0.4012
   4.000   1.6555   0.01414   0.00775  -0.2618  0.4831  1.0000  -2.0907   0.0000   0.0000   0.0000   0.3980
   4.250   1.6805   0.01438   0.00792  -0.2614  0.4799  1.0000  -2.1211   0.0000   0.0000   0.0000   0.3949
   4.500   1.7046   0.01460   0.00813  -0.2608  0.4765  1.0000  -2.1506   0.0000   0.0000   0.0000   0.3919
   4.750   1.7278   0.01480   0.00833  -0.2600  0.4729  1.0000  -2.1794   0.0000   0.0000   0.0000   0.3889
   5.000   1.7514   0.01504   0.00853  -0.2594  0.4697  1.0000  -2.2088   0.0000   0.0000   0.0000   0.3860
   5.250   1.7747   0.01529   0.00877  -0.2586  0.4664  1.0000  -2.2388   0.0000   0.0000   0.0000   0.3832
   5.500   1.7964   0.01551   0.00901  -0.2576  0.4629  1.0000  -2.2702   0.0000   0.0000   0.0000   0.3803
   5.750   1.8189   0.01577   0.00925  -0.2567  0.4598  1.0000  -2.3024   0.0000   0.0000   0.0000   0.3776
   6.000   1.8428   0.01607   0.00951  -0.2562  0.4569  1.0000  -2.3358   0.0000   0.0000   0.0000   0.3750
   6.250   1.8627   0.01631   0.00981  -0.2548  0.4533  1.0000  -2.3656   0.0000   0.0000   0.0000   0.3723
   6.500   1.8833   0.01658   0.01009  -0.2536  0.4499  1.0000  -2.3963   0.0000   0.0000   0.0000   0.3696
   7.000   1.9243   0.01718   0.01071  -0.2513  0.4431  1.0000  -2.4592   0.0000   0.0000   0.0000   0.3645
   7.250   1.9437   0.01748   0.01104  -0.2499  0.4396  1.0000  -2.4908   0.0000   0.0000   0.0000   0.3620
   7.500   1.9655   0.01784   0.01135  -0.2491  0.4365  1.0000  -2.5248   0.0000   0.0000   0.0000   0.3596
   7.750   1.9831   0.01817   0.01176  -0.2474  0.4330  1.0000  -2.5545   0.0000   0.0000   0.0000   0.3571
   8.000   2.0019   0.01852   0.01215  -0.2460  0.4297  1.0000  -2.5855   0.0000   0.0000   0.0000   0.3547
   8.250   2.0224   0.01890   0.01252  -0.2450  0.4268  1.0000  -2.6183   0.0000   0.0000   0.0000   0.3525
   8.500   2.0407   0.01930   0.01298  -0.2436  0.4236  1.0000  -2.6486   0.0000   0.0000   0.0000   0.3501
   8.750   2.0577   0.01971   0.01345  -0.2419  0.4201  1.0000  -2.6778   0.0000   0.0000   0.0000   0.3478
   9.000   2.0760   0.02014   0.01388  -0.2405  0.4169  1.0000  -2.7086   0.0000   0.0000   0.0000   0.3456
   9.250   2.0936   0.02061   0.01439  -0.2391  0.4137  1.0000  -2.7383   0.0000   0.0000   0.0000   0.3433
   9.500   2.1092   0.02109   0.01495  -0.2373  0.4102  1.0000  -2.7660   0.0000   0.0000   0.0000   0.3411
   9.750   2.1263   0.02159   0.01547  -0.2358  0.4071  1.0000  -2.7953   0.0000   0.0000   0.0000   0.3389
  10.000   2.1434   0.02212   0.01603  -0.2343  0.4039  1.0000  -2.8259   0.0000   0.0000   0.0000   0.3368
  10.250   2.1550   0.02274   0.01675  -0.2319  0.3997  1.0000  -2.8725   0.0000   0.0000   0.0000   0.3346
  10.500   2.1687   0.02337   0.01738  -0.2300  0.3955  1.0000  -2.9293   0.0000   0.0000   0.0000   0.3324
  10.750   2.1778   0.02413   0.01825  -0.2273  0.3906  1.0000  -2.9795   0.0000   0.0000   0.0000   0.3302
  11.000   2.1885   0.02490   0.01905  -0.2251  0.3861  1.0000  -3.0325   0.0000   0.0000   0.0000   0.3280
  11.250   2.1980   0.02577   0.02000  -0.2227  0.3814  1.0000  -3.0835   0.0000   0.0000   0.0000   0.3259
  11.500   2.2077   0.02667   0.02096  -0.2204  0.3770  1.0000  -3.1368   0.0000   0.0000   0.0000   0.3239
  11.750   2.2183   0.02761   0.02195  -0.2184  0.3731  1.0000  -3.2026   0.0000   0.0000   0.0000   0.3219
  12.000   2.2263   0.02867   0.02312  -0.2161  0.3685  1.0000  -3.2676   0.0000   0.0000   0.0000   0.3199
  12.250   2.2347   0.02981   0.02427  -0.2139  0.3643  1.0000  -3.3360   0.0000   0.0000   0.0000   0.3179
  12.500   2.2414   0.03107   0.02565  -0.2117  0.3595  1.0000  -3.4011   0.0000   0.0000   0.0000   0.3160
  12.750   2.2485   0.03239   0.02699  -0.2096  0.3554  1.0000  -3.4676   0.0000   0.0000   0.0000   0.3142
  13.000   2.2542   0.03385   0.02858  -0.2076  0.3507  1.0000  -3.5333   0.0000   0.0000   0.0000   0.3124
  13.250   2.2586   0.03548   0.03025  -0.2055  0.3459  1.0000  -3.6007   0.0000   0.0000   0.0000   0.3106
  13.500   2.2625   0.03724   0.03212  -0.2035  0.3405  1.0000  -3.6668   0.0000   0.0000   0.0000   0.3090
  13.750   2.2646   0.03921   0.03412  -0.2014  0.3355  1.0000  -3.7299   0.0000   0.0000   0.0000   0.3073
  14.000   2.2671   0.04125   0.03629  -0.1997  0.3299  1.0000  -3.7935   0.0000   0.0000   0.0000   0.3058
  14.250   2.2678   0.04351   0.03860  -0.1978  0.3249  1.0000  -3.8643   0.0000   0.0000   0.0000   0.3042
  14.500   2.2684   0.04590   0.04110  -0.1962  0.3191  1.0000  -3.9438   0.0000   0.0000   0.0000   0.3028
  14.750   2.2676   0.04849   0.04376  -0.1945  0.3137  1.0000  -4.0199   0.0000   0.0000   0.0000   0.3014
  15.000   2.2651   0.05135   0.04670  -0.1930  0.3078  1.0000  -4.0915   0.0000   0.0000   0.0000   0.3001
  15.250   2.2626   0.05430   0.04975  -0.1916  0.3018  1.0000  -4.1633   0.0000   0.0000   0.0000   0.2989
  15.500   2.2572   0.05765   0.05315  -0.1902  0.2957  1.0000  -4.2331   0.0000   0.0000   0.0000   0.2977
  15.750   2.2506   0.06125   0.05683  -0.1889  0.2888  1.0000  -4.2998   0.0000   0.0000   0.0000   0.2967
  16.000   2.2435   0.06501   0.06069  -0.1878  0.2816  1.0000  -4.3648   0.0000   0.0000   0.0000   0.2957
  16.250   2.2342   0.06913   0.06488  -0.1867  0.2741  1.0000  -4.4229   0.0000   0.0000   0.0000   0.2948
  16.500   2.2235   0.07353   0.06934  -0.1858  0.2663  1.0000  -4.4758   0.0000   0.0000   0.0000   0.2941
  16.750   2.2108   0.07827   0.07414  -0.1851  0.2582  1.0000  -4.5222   0.0000   0.0000   0.0000   0.2934
  17.000   2.1969   0.08327   0.07919  -0.1845  0.2493  1.0000  -4.5917   0.0000   0.0000   0.0000   0.2929
  17.250   2.1816   0.08855   0.08453  -0.1841  0.2396  1.0000  -4.6622   0.0000   0.0000   0.0000   0.2925
  17.500   2.1648   0.09414   0.09016  -0.1839  0.2289  1.0000  -4.7255   0.0000   0.0000   0.0000   0.2923
  17.750   2.1458   0.10009   0.09612  -0.1839  0.2180  1.0000  -4.7753   0.0000   0.0000   0.0000   0.2923
  18.000   2.1259   0.10624   0.10228  -0.1842  0.2071  1.0000  -4.8166   0.0000   0.0000   0.0000   0.2925
  18.250   2.1083   0.11210   0.10816  -0.1848  0.1947  1.0000  -4.8678   0.0000   0.0000   0.0000   0.2927
  18.500   2.0887   0.11828   0.11433  -0.1856  0.1827  1.0000  -4.9036   0.0000   0.0000   0.0000   0.2931
  18.750   2.0710   0.12421   0.12025  -0.1867  0.1709  1.0000  -4.9466   0.0000   0.0000   0.0000   0.2936
  19.000   2.0541   0.13002   0.12604  -0.1880  0.1601  1.0000  -4.9905   0.0000   0.0000   0.0000   0.2942
  19.250   2.0387   0.13560   0.13160  -0.1894  0.1505  1.0000  -5.0404   0.0000   0.0000   0.0000   0.2948
  19.500   2.0264   0.14068   0.13667  -0.1909  0.1417  1.0000  -5.1076   0.0000   0.0000   0.0000   0.2953
  19.750   2.0163   0.14541   0.14140  -0.1924  0.1337  1.0000  -5.1864   0.0000   0.0000   0.0000   0.2958
  20.000   2.0081   0.14984   0.14584  -0.1940  0.1261  1.0000  -5.2760   0.0000   0.0000   0.0000   0.2961
  20.250   2.0004   0.15417   0.15018  -0.1956  0.1194  1.0000  -5.3677   0.0000   0.0000   0.0000   0.2965
  20.500   1.9935   0.15837   0.15437  -0.1973  0.1132  1.0000  -5.4639   0.0000   0.0000   0.0000   0.2969
  20.750   1.9886   0.16222   0.15825  -0.1990  0.1070  1.0000  -5.5733   0.0000   0.0000   0.0000   0.2972
  21.000   1.9841   0.16600   0.16205  -0.2007  0.1014  1.0000  -5.6852   0.0000   0.0000   0.0000   0.2975
  21.250   1.9803   0.16965   0.16546  -0.2024  0.0961  1.0000  -5.8018   0.0000   0.0000   0.0000   0.2978
  21.500   1.9769   0.17320   0.16930  -0.2042  0.0909  1.0000  -5.9213   0.0000   0.0000   0.0000   0.2980
  21.750   1.9734   0.17681   0.17293  -0.2061  0.0860  1.0000  -6.0388   0.0000   0.0000   0.0000   0.2983
  22.000   1.9696   0.18041   0.17655  -0.2081  0.0815  1.0000  -6.1545   0.0000   0.0000   0.0000   0.2987
  22.250   1.9668   0.18383   0.17999  -0.2101  0.0768  1.0000  -6.2778   0.0000   0.0000   0.0000   0.2990
  22.500   1.9645   0.18716   0.18334  -0.2121  0.0725  1.0000  -6.4054   0.0000   0.0000   0.0000   0.2993
  22.750   1.9624   0.19041   0.18663  -0.2141  0.0683  1.0000  -6.5338   0.0000   0.0000   0.0000   0.2996
  23.000   1.9604   0.19367   0.18992  -0.2161  0.0644  1.0000  -6.6633   0.0000   0.0000   0.0000   0.2999
  23.250   1.9581   0.19699   0.19325  -0.2183  0.0608  1.0000  -6.7897   0.0000   0.0000   0.0000   0.3002
  23.500   1.9553   0.20035   0.19664  -0.2206  0.0574  1.0000  -6.9117   0.0000   0.0000   0.0000   0.3007
  23.750   1.9542   0.20340   0.19972  -0.2227  0.0540  1.0000  -7.0500   0.0000   0.0000   0.0000   0.3009
  24.000   1.9530   0.20644   0.20281  -0.2249  0.0510  1.0000  -7.1943   0.0000   0.0000   0.0000   0.3012
  24.250   1.9515   0.20954   0.20594  -0.2272  0.0482  1.0000  -7.3359   0.0000   0.0000   0.0000   0.3016
  24.500   1.9496   0.21268   0.20911  -0.2295  0.0457  1.0000  -7.4737   0.0000   0.0000   0.0000   0.3020
  24.750   1.9487   0.21562   0.21210  -0.2318  0.0431  1.0000  -7.6215   0.0000   0.0000   0.0000   0.3023
  25.000   1.9475   0.21861   0.21514  -0.2342  0.0407  1.0000  -7.7660   0.0000   0.0000   0.0000   0.3026


