xflr5 v6.59

 Calculated polar for: TKV2008

 1 1 Reynolds number fixed          Mach number fixed         

 xtrf =   1.000 (top)        1.000 (bottom)
 Mach =   0.000     Re =     0.490 e 6     Ncrit =   9.000

  alpha     CL        CD       CDp       Cm    Top Xtr Bot Xtr   Cpmin    Chinge    XCp    
 ------- -------- --------- --------- -------- ------- ------- -------- --------- ---------
 -25.000  -0.4720   0.26890   0.26613   0.0050  1.0000  0.0076  -1.3542   0.0000   0.0000   0.0000   0.2198
 -24.750  -0.4647   0.26682   0.26405   0.0035  1.0000  0.0077  -1.3397   0.0000   0.0000   0.0000   0.2167
 -24.500  -0.4574   0.26470   0.26194   0.0020  1.0000  0.0078  -1.3268   0.0000   0.0000   0.0000   0.2136
 -24.250  -0.4501   0.26257   0.25981   0.0005  1.0000  0.0080  -1.3198   0.0000   0.0000   0.0000   0.2103
 -24.000  -0.4427   0.26041   0.25766  -0.0010  1.0000  0.0081  -1.3129   0.0000   0.0000   0.0000   0.2070
 -23.750  -0.4354   0.25824   0.25550  -0.0024  1.0000  0.0082  -1.3060   0.0000   0.0000   0.0000   0.2036
 -23.500  -0.4280   0.25605   0.25331  -0.0038  1.0000  0.0083  -1.2993   0.0000   0.0000   0.0000   0.2001
 -23.250  -0.4206   0.25384   0.25111  -0.0052  1.0000  0.0084  -1.2933   0.0000   0.0000   0.0000   0.1965
 -23.000  -0.4132   0.25163   0.24890  -0.0066  1.0000  0.0086  -1.2974   0.0000   0.0000   0.0000   0.1929
 -22.750  -0.4057   0.24940   0.24668  -0.0080  1.0000  0.0086  -1.3031   0.0000   0.0000   0.0000   0.1891
 -22.500  -0.3983   0.24714   0.24442  -0.0093  1.0000  0.0087  -1.3097   0.0000   0.0000   0.0000   0.1853
 -22.250  -0.3909   0.24488   0.24218  -0.0106  1.0000  0.0087  -1.3176   0.0000   0.0000   0.0000   0.1813
 -21.000  -0.3544   0.23341   0.23074  -0.0170  1.0000  0.0088  -1.3648   0.0000   0.0000   0.0000   0.1595
 -20.750  -0.3472   0.23120   0.22854  -0.0180  1.0000  0.0089  -1.3308   0.0000   0.0000   0.0000   0.1555
 -20.500  -0.3401   0.22907   0.22643  -0.0190  1.0000  0.0089  -1.3069   0.0000   0.0000   0.0000   0.1511
 -20.250  -0.3329   0.22695   0.22432  -0.0201  1.0000  0.0090  -1.2909   0.0000   0.0000   0.0000   0.1466
 -20.000  -0.3258   0.22479   0.22217  -0.0211  1.0000  0.0091  -1.2790   0.0000   0.0000   0.0000   0.1419
 -19.750  -0.3187   0.22265   0.22004  -0.0221  1.0000  0.0092  -1.2701   0.0000   0.0000   0.0000   0.1371
 -19.500  -0.3116   0.22048   0.21788  -0.0231  1.0000  0.0093  -1.2637   0.0000   0.0000   0.0000   0.1321
 -19.250  -0.3046   0.21828   0.21570  -0.0240  1.0000  0.0094  -1.2587   0.0000   0.0000   0.0000   0.1271
 -19.000  -0.2977   0.21607   0.21350  -0.0249  1.0000  0.0095  -1.2545   0.0000   0.0000   0.0000   0.1219
 -18.750  -0.2908   0.21386   0.21130  -0.0257  1.0000  0.0096  -1.2508   0.0000   0.0000   0.0000   0.1167
 -18.500  -0.2841   0.21163   0.20909  -0.0266  1.0000  0.0098  -1.2477   0.0000   0.0000   0.0000   0.1114
 -18.250  -0.2774   0.20942   0.20689  -0.0273  1.0000  0.0099  -1.2454   0.0000   0.0000   0.0000   0.1060
 -18.000  -0.2709   0.20719   0.20467  -0.0281  1.0000  0.0100  -1.2444   0.0000   0.0000   0.0000   0.1006
 -17.750  -0.2644   0.20496   0.20246  -0.0287  1.0000  0.0101  -1.2454   0.0000   0.0000   0.0000   0.0951
 -16.250  -0.2192   0.19047   0.18806  -0.0352  0.9990  0.0104  -1.3274   0.0000   0.0000   0.0000   0.0384
 -16.000  -0.2000   0.18695   0.18454  -0.0395  0.9976  0.0105  -1.2792   0.0000   0.0000   0.0000  -0.0032
 -15.750  -0.1803   0.18349   0.18108  -0.0440  0.9964  0.0106  -1.2472   0.0000   0.0000   0.0000  -0.0560
 -15.500  -0.1617   0.17992   0.17750  -0.0482  0.9945  0.0107  -1.2246   0.0000   0.0000   0.0000  -0.1167
 -15.250  -0.1424   0.17636   0.17394  -0.0526  0.9928  0.0109  -1.2060   0.0000   0.0000   0.0000  -0.1972
 -15.000  -0.1224   0.17277   0.17033  -0.0571  0.9915  0.0110  -1.1901   0.0000   0.0000   0.0000  -0.3079
 -14.750  -0.1038   0.16916   0.16672  -0.0613  0.9897  0.0112  -1.1774   0.0000   0.0000   0.0000  -0.4474
 -14.500  -0.0858   0.16557   0.16313  -0.0652  0.9876  0.0114  -1.1674   0.0000   0.0000   0.0000  -0.6384
 -14.250  -0.0666   0.16190   0.15945  -0.0695  0.9861  0.0117  -1.1608   0.0000   0.0000   0.0000  -0.9587
 -14.000  -0.0466   0.15814   0.15569  -0.0740  0.9851  0.0118  -1.1631   0.0000   0.0000   0.0000  -1.5764
 -13.750  -0.0307   0.15453   0.15208  -0.0773  0.9820  0.0119  -1.1818   0.0000   0.0000   0.0000  -2.6258
 -13.250   0.0085   0.14687   0.14440  -0.0864  0.9791  0.0120  -1.2314   0.0000   0.0000   0.0000  11.6791
 -13.000   0.0239   0.14355   0.14108  -0.0890  0.9752  0.0121  -1.1815   0.0000   0.0000   0.0000   4.4241
 -12.750   0.0441   0.13995   0.13748  -0.0932  0.9732  0.0123  -1.1464   0.0000   0.0000   0.0000   2.6103
 -12.500   0.0587   0.13674   0.13428  -0.0957  0.9685  0.0125  -1.1287   0.0000   0.0000   0.0000   2.0632
 -12.250   0.0787   0.13308   0.13061  -0.0999  0.9658  0.0127  -1.1143   0.0000   0.0000   0.0000   1.6567
 -12.000   0.0839   0.13063   0.12818  -0.0995  0.9542  0.0129  -1.1124   0.0000   0.0000   0.0000   1.5619
 -11.750   0.0826   0.12887   0.12644  -0.0972  0.9305  0.0130  -1.1157   0.0000   0.0000   0.0000   1.5497
 -11.500   0.1002   0.12525   0.12280  -0.1006  0.9142  0.0133  -1.1126   0.0000   0.0000   0.0000   1.3543
 -11.250   0.1307   0.12038   0.11788  -0.1079  0.9034  0.0136  -1.1222   0.0000   0.0000   0.0000   1.1533
 -10.750   0.2254   0.10818   0.10544  -0.1326  0.8821  0.0139  -1.0880   0.0000   0.0000   0.0000   0.8867
 -10.500   0.2911   0.10158   0.09861  -0.1500  0.8616  0.0143  -1.0138   0.0000   0.0000   0.0000   0.8046
  -9.750   0.3519   0.09315   0.08945  -0.1618  0.7658  0.0154  -1.0585   0.0000   0.0000   0.0000   0.7417
  -9.500   0.3574   0.09119   0.08738  -0.1625  0.7488  0.0155  -1.1532   0.0000   0.0000   0.0000   0.7350
  -9.250   0.3670   0.08929   0.08540  -0.1622  0.7344  0.0156  -1.0852   0.0000   0.0000   0.0000   0.7210
  -9.000   0.3758   0.08753   0.08356  -0.1623  0.7220  0.0158  -1.0491   0.0000   0.0000   0.0000   0.7094
  -8.750   0.3844   0.08575   0.08172  -0.1625  0.7112  0.0160  -1.0304   0.0000   0.0000   0.0000   0.6988
  -8.500   0.3929   0.08394   0.07985  -0.1627  0.7015  0.0163  -1.0207   0.0000   0.0000   0.0000   0.6889
  -8.250   0.4013   0.08209   0.07796  -0.1629  0.6924  0.0166  -1.0171   0.0000   0.0000   0.0000   0.6795
  -7.250   0.4325   0.07450   0.07025  -0.1640  0.6643  0.0174  -1.0819   0.0000   0.0000   0.0000   0.6483
  -7.000   0.4414   0.07282   0.06857  -0.1639  0.6577  0.0176  -1.0507   0.0000   0.0000   0.0000   0.6392
  -6.750   0.4497   0.07118   0.06690  -0.1638  0.6522  0.0179  -1.0589   0.0000   0.0000   0.0000   0.6312
  -6.500   0.4571   0.06949   0.06521  -0.1636  0.6464  0.0183  -1.0660   0.0000   0.0000   0.0000   0.6240
  -6.250   0.4636   0.06780   0.06349  -0.1634  0.6415  0.0188  -1.0724   0.0000   0.0000   0.0000   0.6175
  -6.000   0.4637   0.06603   0.06175  -0.1630  0.6365  0.0192  -1.1291   0.0000   0.0000   0.0000   0.6157
  -5.750   0.4670   0.06443   0.06015  -0.1619  0.6316  0.0193  -1.1414   0.0000   0.0000   0.0000   0.6100
  -5.500   0.4743   0.06302   0.05873  -0.1609  0.6269  0.0195  -1.0874   0.0000   0.0000   0.0000   0.6017
  -5.250   0.4820   0.06149   0.05722  -0.1606  0.6218  0.0198  -1.0955   0.0000   0.0000   0.0000   0.5948
  -5.000   0.4914   0.05981   0.05551  -0.1611  0.6175  0.0203  -1.1038   0.0000   0.0000   0.0000   0.5885
  -4.750   0.5014   0.05719   0.05291  -0.1650  0.6134  0.0212  -1.2472   0.0000   0.0000   0.0000   0.5889
  -4.500   0.5127   0.05563   0.05136  -0.1641  0.6090  0.0214  -1.1567   0.0000   0.0000   0.0000   0.5791
  -4.250   0.5272   0.05400   0.04968  -0.1651  0.6052  0.0219  -1.1302   0.0000   0.0000   0.0000   0.5712
  -4.000   0.5428   0.05196   0.04766  -0.1672  0.6010  0.0227  -1.1410   0.0000   0.0000   0.0000   0.5652
  -3.750   0.5672   0.04865   0.04433  -0.1736  0.5970  0.0234  -1.2160   0.0000   0.0000   0.0000   0.5625
  -3.500   0.5862   0.04704   0.04267  -0.1749  0.5932  0.0239  -1.1696   0.0000   0.0000   0.0000   0.5539
  -3.250   0.6304   0.04246   0.03805  -0.1869  0.5890  0.0255  -1.2720   0.0000   0.0000   0.0000   0.5512
  -3.000   0.6483   0.04123   0.03681  -0.1869  0.5849  0.0259  -1.2076   0.0000   0.0000   0.0000   0.5424
  -2.750   0.7047   0.03677   0.03220  -0.1999  0.5812  0.0280  -1.2382   0.0000   0.0000   0.0000   0.5370
  -1.500   1.0394   0.01576   0.00900  -0.2592  0.5606  0.0306  -1.4470   0.0000   0.0000   0.0000   0.4996
  -1.250   1.0776   0.01474   0.00764  -0.2613  0.5570  0.0288  -1.4783   0.0000   0.0000   0.0000   0.4923
  -1.000   1.1099   0.01415   0.00688  -0.2623  0.5529  0.0290  -1.5065   0.0000   0.0000   0.0000   0.4856
  -0.750   1.1410   0.01380   0.00637  -0.2629  0.5492  0.0301  -1.5344   0.0000   0.0000   0.0000   0.4792
  -0.500   1.1713   0.01364   0.00615  -0.2634  0.5458  0.0322  -1.5623   0.0000   0.0000   0.0000   0.4732
  -0.250   1.2004   0.01340   0.00594  -0.2637  0.5416  0.0341  -1.5899   0.0000   0.0000   0.0000   0.4675
   0.000   1.2294   0.01328   0.00579  -0.2640  0.5377  0.0371  -1.6187   0.0000   0.0000   0.0000   0.4621
   0.250   1.2594   0.01324   0.00569  -0.2645  0.5343  0.0405  -1.6481   0.0000   0.0000   0.0000   0.4569
   0.500   1.2879   0.01315   0.00565  -0.2647  0.5305  0.0460  -1.6765   0.0000   0.0000   0.0000   0.4519
   0.750   1.3166   0.01310   0.00561  -0.2649  0.5269  0.0570  -1.7052   0.0000   0.0000   0.0000   0.4472
   1.000   1.3480   0.01295   0.00573  -0.2660  0.5237  0.2000  -1.7358   0.0000   0.0000   0.0000   0.4428
   1.250   1.3745   0.01302   0.00585  -0.2658  0.5200  0.2405  -1.7632   0.0000   0.0000   0.0000   0.4383
   1.500   1.4010   0.01309   0.00596  -0.2656  0.5162  0.2698  -1.7911   0.0000   0.0000   0.0000   0.4341
   1.750   1.4282   0.01321   0.00608  -0.2655  0.5128  0.3052  -1.8201   0.0000   0.0000   0.0000   0.4300
   2.000   1.4552   0.01323   0.00626  -0.2656  0.5091  0.3731  -1.8503   0.0000   0.0000   0.0000   0.4261
   2.250   1.4834   0.01303   0.00661  -0.2659  0.5054  0.6583  -1.8827   0.0000   0.0000   0.0000   0.4224
   2.750   1.5297   0.01298   0.00686  -0.2639  0.4990  1.0000  -1.9400   0.0000   0.0000   0.0000   0.4147
   3.000   1.5550   0.01315   0.00699  -0.2635  0.4952  1.0000  -1.9702   0.0000   0.0000   0.0000   0.4112
   3.250   1.5805   0.01334   0.00712  -0.2631  0.4919  1.0000  -2.0008   0.0000   0.0000   0.0000   0.4077
   3.500   1.6062   0.01356   0.00727  -0.2628  0.4886  1.0000  -2.0315   0.0000   0.0000   0.0000   0.4044
   3.750   1.6304   0.01373   0.00744  -0.2622  0.4847  1.0000  -2.0611   0.0000   0.0000   0.0000   0.4011
   4.000   1.6549   0.01393   0.00760  -0.2616  0.4812  1.0000  -2.0911   0.0000   0.0000   0.0000   0.3979
   4.250   1.6800   0.01418   0.00779  -0.2612  0.4780  1.0000  -2.1215   0.0000   0.0000   0.0000   0.3949
   4.500   1.7032   0.01436   0.00799  -0.2605  0.4744  1.0000  -2.1503   0.0000   0.0000   0.0000   0.3918
   4.750   1.7264   0.01457   0.00817  -0.2597  0.4710  1.0000  -2.1792   0.0000   0.0000   0.0000   0.3888
   5.000   1.7510   0.01485   0.00839  -0.2592  0.4680  1.0000  -2.2094   0.0000   0.0000   0.0000   0.3859
   5.250   1.7725   0.01505   0.00862  -0.2581  0.4644  1.0000  -2.2376   0.0000   0.0000   0.0000   0.3830
   5.500   1.7947   0.01528   0.00885  -0.2572  0.4611  1.0000  -2.2695   0.0000   0.0000   0.0000   0.3802
   5.750   1.8183   0.01557   0.00909  -0.2566  0.4581  1.0000  -2.3027   0.0000   0.0000   0.0000   0.3775
   6.000   1.8397   0.01582   0.00937  -0.2555  0.4549  1.0000  -2.3339   0.0000   0.0000   0.0000   0.3748
   6.250   1.8606   0.01607   0.00965  -0.2543  0.4514  1.0000  -2.3646   0.0000   0.0000   0.0000   0.3721
   6.500   1.8821   0.01636   0.00991  -0.2534  0.4482  1.0000  -2.3963   0.0000   0.0000   0.0000   0.3695
   6.750   1.9029   0.01665   0.01023  -0.2522  0.4448  1.0000  -2.4270   0.0000   0.0000   0.0000   0.3670
   7.000   1.9222   0.01693   0.01055  -0.2508  0.4411  1.0000  -2.4582   0.0000   0.0000   0.0000   0.3644
   7.250   1.9425   0.01725   0.01086  -0.2496  0.4379  1.0000  -2.4907   0.0000   0.0000   0.0000   0.3619
   7.500   1.9627   0.01760   0.01122  -0.2485  0.4346  1.0000  -2.5230   0.0000   0.0000   0.0000   0.3595
   7.750   1.9812   0.01792   0.01160  -0.2470  0.4311  1.0000  -2.5537   0.0000   0.0000   0.0000   0.3570
   8.000   2.0008   0.01828   0.01197  -0.2457  0.4280  1.0000  -2.5855   0.0000   0.0000   0.0000   0.3547
   8.250   2.0213   0.01868   0.01236  -0.2447  0.4251  1.0000  -2.6183   0.0000   0.0000   0.0000   0.3524
   8.500   2.0384   0.01906   0.01282  -0.2431  0.4216  1.0000  -2.6474   0.0000   0.0000   0.0000   0.3500
   8.750   2.0562   0.01947   0.01326  -0.2416  0.4183  1.0000  -2.6776   0.0000   0.0000   0.0000   0.3477
   9.000   2.0760   0.01992   0.01369  -0.2405  0.4153  1.0000  -2.7098   0.0000   0.0000   0.0000   0.3455
   9.250   2.0913   0.02038   0.01425  -0.2386  0.4117  1.0000  -2.7371   0.0000   0.0000   0.0000   0.3432
   9.500   2.1078   0.02085   0.01477  -0.2369  0.4084  1.0000  -2.7659   0.0000   0.0000   0.0000   0.3410
   9.750   2.1268   0.02135   0.01526  -0.2358  0.4055  1.0000  -2.7971   0.0000   0.0000   0.0000   0.3389
  10.000   2.1403   0.02191   0.01592  -0.2337  0.4018  1.0000  -2.8227   0.0000   0.0000   0.0000   0.3367
  10.250   2.1533   0.02251   0.01658  -0.2316  0.3977  1.0000  -2.8709   0.0000   0.0000   0.0000   0.3345
  10.500   2.1663   0.02318   0.01727  -0.2295  0.3934  1.0000  -2.9266   0.0000   0.0000   0.0000   0.3323
  10.750   2.1763   0.02391   0.01809  -0.2271  0.3885  1.0000  -2.9781   0.0000   0.0000   0.0000   0.3301
  11.000   2.1882   0.02469   0.01887  -0.2250  0.3842  1.0000  -3.0327   0.0000   0.0000   0.0000   0.3280
  11.250   2.1972   0.02555   0.01984  -0.2225  0.3793  1.0000  -3.0830   0.0000   0.0000   0.0000   0.3259
  11.500   2.2080   0.02644   0.02075  -0.2204  0.3753  1.0000  -3.1382   0.0000   0.0000   0.0000   0.3239
  11.750   2.2178   0.02739   0.02181  -0.2183  0.3710  1.0000  -3.2022   0.0000   0.0000   0.0000   0.3218
  12.000   2.2263   0.02846   0.02293  -0.2161  0.3666  1.0000  -3.2684   0.0000   0.0000   0.0000   0.3199
  12.250   2.2344   0.02961   0.02415  -0.2139  0.3621  1.0000  -3.3361   0.0000   0.0000   0.0000   0.3179
  12.500   2.2418   0.03085   0.02547  -0.2118  0.3576  1.0000  -3.4027   0.0000   0.0000   0.0000   0.3160
  12.750   2.2490   0.03217   0.02684  -0.2097  0.3535  1.0000  -3.4693   0.0000   0.0000   0.0000   0.3142
  13.000   2.2549   0.03363   0.02840  -0.2077  0.3485  1.0000  -3.5355   0.0000   0.0000   0.0000   0.3124
  13.250   2.2595   0.03527   0.03008  -0.2056  0.3437  1.0000  -3.6033   0.0000   0.0000   0.0000   0.3107
  13.500   2.2634   0.03703   0.03195  -0.2036  0.3383  1.0000  -3.6697   0.0000   0.0000   0.0000   0.3090
  13.750   2.2662   0.03896   0.03394  -0.2017  0.3332  1.0000  -3.7341   0.0000   0.0000   0.0000   0.3073
  14.000   2.2684   0.04104   0.03610  -0.1999  0.3277  1.0000  -3.7971   0.0000   0.0000   0.0000   0.3058
  14.250   2.2702   0.04323   0.03837  -0.1981  0.3225  1.0000  -3.8717   0.0000   0.0000   0.0000   0.3043
  14.500   2.2697   0.04571   0.04092  -0.1964  0.3171  1.0000  -3.9482   0.0000   0.0000   0.0000   0.3028
  14.750   2.2700   0.04821   0.04352  -0.1948  0.3113  1.0000  -4.0274   0.0000   0.0000   0.0000   0.3015
  15.000   2.2671   0.05111   0.04647  -0.1932  0.3058  1.0000  -4.0980   0.0000   0.0000   0.0000   0.3001
  15.250   2.2644   0.05410   0.04956  -0.1918  0.2995  1.0000  -4.1696   0.0000   0.0000   0.0000   0.2989
  15.500   2.2599   0.05736   0.05290  -0.1905  0.2931  1.0000  -4.2429   0.0000   0.0000   0.0000   0.2978
  15.750   2.2528   0.06101   0.05662  -0.1892  0.2864  1.0000  -4.3081   0.0000   0.0000   0.0000   0.2967
  16.000   2.2442   0.06495   0.06062  -0.1880  0.2792  1.0000  -4.3687   0.0000   0.0000   0.0000   0.2958
  16.250   2.2355   0.06901   0.06476  -0.1870  0.2714  1.0000  -4.4287   0.0000   0.0000   0.0000   0.2949
  16.500   2.2251   0.07336   0.06919  -0.1861  0.2635  1.0000  -4.4830   0.0000   0.0000   0.0000   0.2941
  16.750   2.2124   0.07812   0.07400  -0.1853  0.2551  1.0000  -4.5292   0.0000   0.0000   0.0000   0.2935
  17.000   2.1982   0.08317   0.07910  -0.1847  0.2460  1.0000  -4.5998   0.0000   0.0000   0.0000   0.2930
  17.250   2.1819   0.08859   0.08457  -0.1843  0.2360  1.0000  -4.6657   0.0000   0.0000   0.0000   0.2926
  17.500   2.1634   0.09440   0.09041  -0.1841  0.2255  1.0000  -4.7205   0.0000   0.0000   0.0000   0.2925
  17.750   2.1446   0.10035   0.09637  -0.1841  0.2144  1.0000  -4.7710   0.0000   0.0000   0.0000   0.2924
  18.000   2.1263   0.10628   0.10232  -0.1844  0.2026  1.0000  -4.8213   0.0000   0.0000   0.0000   0.2925
  18.250   2.1056   0.11261   0.10864  -0.1850  0.1910  1.0000  -4.8543   0.0000   0.0000   0.0000   0.2929
  18.500   2.0877   0.11855   0.11459  -0.1858  0.1785  1.0000  -4.8997   0.0000   0.0000   0.0000   0.2933
  18.750   2.0690   0.12462   0.12064  -0.1869  0.1671  1.0000  -4.9370   0.0000   0.0000   0.0000   0.2938
  19.000   2.0524   0.13040   0.12639  -0.1882  0.1569  1.0000  -4.9824   0.0000   0.0000   0.0000   0.2944
  19.250   2.0388   0.13569   0.13168  -0.1896  0.1472  1.0000  -5.0439   0.0000   0.0000   0.0000   0.2949
  19.500   2.0269   0.14071   0.13670  -0.1910  0.1386  1.0000  -5.1131   0.0000   0.0000   0.0000   0.2954
  19.750   2.0172   0.14538   0.14137  -0.1925  0.1308  1.0000  -5.1951   0.0000   0.0000   0.0000   0.2958
  20.000   2.0089   0.14982   0.14582  -0.1941  0.1235  1.0000  -5.2843   0.0000   0.0000   0.0000   0.2962
  20.250   2.0017   0.15408   0.15009  -0.1957  0.1169  1.0000  -5.3796   0.0000   0.0000   0.0000   0.2965
  20.500   1.9957   0.15812   0.15415  -0.1973  0.1108  1.0000  -5.4824   0.0000   0.0000   0.0000   0.2968
  20.750   1.9903   0.16207   0.15811  -0.1990  0.1049  1.0000  -5.5884   0.0000   0.0000   0.0000   0.2971
  21.000   1.9846   0.16604   0.16208  -0.2008  0.0997  1.0000  -5.6920   0.0000   0.0000   0.0000   0.2975
  21.250   1.9805   0.16975   0.16581  -0.2026  0.0943  1.0000  -5.8063   0.0000   0.0000   0.0000   0.2978
  21.500   1.9778   0.17321   0.16930  -0.2043  0.0891  1.0000  -5.9309   0.0000   0.0000   0.0000   0.2980
  21.750   1.9748   0.17669   0.17281  -0.2062  0.0842  1.0000  -6.0535   0.0000   0.0000   0.0000   0.2983
  22.000   1.9718   0.18016   0.17631  -0.2081  0.0795  1.0000  -6.1758   0.0000   0.0000   0.0000   0.2986
  22.250   1.9689   0.18362   0.17979  -0.2101  0.0751  1.0000  -6.2982   0.0000   0.0000   0.0000   0.2989
  22.500   1.9655   0.18713   0.18330  -0.2121  0.0710  1.0000  -6.4171   0.0000   0.0000   0.0000   0.2993
  22.750   1.9632   0.19044   0.18665  -0.2142  0.0669  1.0000  -6.5442   0.0000   0.0000   0.0000   0.2996
  23.000   1.9616   0.19363   0.18987  -0.2162  0.0629  1.0000  -6.6769   0.0000   0.0000   0.0000   0.2998
  23.250   1.9599   0.19681   0.19308  -0.2183  0.0592  1.0000  -6.8093   0.0000   0.0000   0.0000   0.3001
  23.500   1.9578   0.20005   0.19635  -0.2205  0.0559  1.0000  -6.9382   0.0000   0.0000   0.0000   0.3005
  23.750   1.9556   0.20328   0.19961  -0.2227  0.0528  1.0000  -7.0690   0.0000   0.0000   0.0000   0.3008
  24.000   1.9540   0.20640   0.20276  -0.2249  0.0499  1.0000  -7.2101   0.0000   0.0000   0.0000   0.3012
  24.250   1.9534   0.20932   0.20574  -0.2271  0.0470  1.0000  -7.3611   0.0000   0.0000   0.0000   0.3014
  24.500   1.9522   0.21236   0.20881  -0.2294  0.0445  1.0000  -7.5055   0.0000   0.0000   0.0000   0.3017
  24.750   1.9495   0.21563   0.21210  -0.2319  0.0422  1.0000  -7.6358   0.0000   0.0000   0.0000   0.3023
  25.000   1.9488   0.21850   0.21503  -0.2342  0.0397  1.0000  -7.7864   0.0000   0.0000   0.0000   0.3025


